<?xml version="1.0" encoding="UTF-8"?>

<!-- generated on 02/11/20 20:03:36 by Eclipse SUMO duarouter Version 1.3.1
<configuration xmlns:xsi="http://www.w3.org/2001/XMLSchema-instance" xsi:noNamespaceSchemaLocation="http://sumo.dlr.de/xsd/duarouterConfiguration.xsd">

    <input>
        <net-file value="simpleNetwork.net.xml"/>
        <route-files value="trips.trips.xml"/>
    </input>

    <output>
        <output-file value="routes.rou.xml"/>
        <alternatives-output value="routes.rou.alt.xml"/>
    </output>

    <time>
        <begin value="0"/>
        <end value="300.0"/>
    </time>

    <report>
        <no-warnings value="true"/>
        <ignore-errors value="true"/>
        <no-step-log value="true"/>
    </report>

</configuration>
-->

<routes xmlns:xsi="http://www.w3.org/2001/XMLSchema-instance" xsi:noNamespaceSchemaLocation="http://sumo.dlr.de/xsd/routes_file.xsd">
    <vehicle id="0" depart="0.00">
        <route edges="NWB2four-arm_LTL four-arm2bend bend2T-intersection_LTL T-intersection2incoming_LTL incoming2four-arm_LTL four-arm2NWB"/>
    </vehicle>
    <vehicle id="1" depart="1.00">
        <route edges="EB2incoming incoming2four-arm_LTL four-arm2NWB"/>
    </vehicle>
    <vehicle id="3" depart="3.00">
        <route edges="NEB2incoming_LTL incoming2four-arm_LTL"/>
    </vehicle>
    <vehicle id="4" depart="4.00">
        <route edges="four-arm2bend bend2T-intersection_LTL T-intersection2incoming_LTL incoming2four-arm_LTL four-arm2WB"/>
    </vehicle>
    <vehicle id="5" depart="5.00">
        <route edges="T-intersection2incoming_LTL"/>
    </vehicle>
    <vehicle id="6" depart="6.00">
        <route edges="SEB2T-intersection T-intersection2incoming_LTL incoming2four-arm_LTL four-arm2bend bend2T-intersection_LTL"/>
    </vehicle>
    <vehicle id="7" depart="7.00">
        <route edges="four-arm2bend bend2T-intersection_LTL T-intersection2incoming_LTL incoming2four-arm_LTL four-arm2WB"/>
    </vehicle>
    <vehicle id="8" depart="8.00">
        <route edges="incoming2four-arm_LTL four-arm2bend bend2T-intersection_LTL T-intersection2SEB"/>
    </vehicle>
    <vehicle id="9" depart="9.00">
        <route edges="bend2T-intersection_LTL T-intersection2SEB"/>
    </vehicle>
    <vehicle id="10" depart="10.00">
        <route edges="four-arm2bend bend2T-intersection_LTL T-intersection2incoming_LTL incoming2EB"/>
    </vehicle>
    <vehicle id="12" depart="12.00">
        <route edges="NWB2four-arm_LTL four-arm2incoming"/>
    </vehicle>
    <vehicle id="14" depart="14.00">
        <route edges="incoming2four-arm_LTL four-arm2NWB"/>
    </vehicle>
    <vehicle id="15" depart="15.00">
        <route edges="incoming2four-arm_LTL four-arm2bend bend2T-intersection_LTL T-intersection2incoming_LTL"/>
    </vehicle>
    <vehicle id="16" depart="16.00">
        <route edges="WB2four-arm_LTL four-arm2bend bend2T-intersection_LTL T-intersection2incoming_LTL"/>
    </vehicle>
    <vehicle id="18" depart="18.00">
        <route edges="T-intersection2incoming_LTL incoming2EB"/>
    </vehicle>
    <vehicle id="19" depart="19.00">
        <route edges="SEB2T-intersection T-intersection2incoming_LTL incoming2four-arm_LTL four-arm2WB"/>
    </vehicle>
    <vehicle id="20" depart="20.00">
        <route edges="NEB2incoming_LTL incoming2four-arm_LTL four-arm2NWB"/>
    </vehicle>
    <vehicle id="22" depart="22.00">
        <route edges="NEB2incoming_LTL incoming2four-arm_LTL"/>
    </vehicle>
    <vehicle id="24" depart="24.00">
        <route edges="WB2four-arm_LTL four-arm2bend bend2T-intersection_LTL"/>
    </vehicle>
    <vehicle id="26" depart="26.00">
        <route edges="T-intersection2incoming_LTL"/>
    </vehicle>
    <vehicle id="28" depart="28.00">
        <route edges="SEB2T-intersection T-intersection2bend"/>
    </vehicle>
    <vehicle id="29" depart="29.00">
        <route edges="NEB2incoming_LTL incoming2EB"/>
    </vehicle>
    <vehicle id="30" depart="30.00">
        <route edges="four-arm2bend bend2T-intersection_LTL T-intersection2incoming_LTL incoming2four-arm_LTL four-arm2WB"/>
    </vehicle>
    <vehicle id="31" depart="31.00">
        <route edges="bend2T-intersection_LTL T-intersection2incoming_LTL"/>
    </vehicle>
    <vehicle id="32" depart="32.00">
        <route edges="T-intersection2incoming_LTL incoming2four-arm_LTL four-arm2bend bend2T-intersection_LTL T-intersection2SEB"/>
    </vehicle>
    <vehicle id="33" depart="33.00">
        <route edges="incoming2four-arm_LTL four-arm2bend bend2T-intersection_LTL"/>
    </vehicle>
    <vehicle id="34" depart="34.00">
        <route edges="incoming2four-arm_LTL four-arm2bend bend2T-intersection_LTL T-intersection2incoming_LTL incoming2EB"/>
    </vehicle>
    <vehicle id="36" depart="36.00">
        <route edges="SEB2T-intersection T-intersection2incoming_LTL incoming2four-arm_LTL four-arm2bend"/>
    </vehicle>
    <vehicle id="37" depart="37.00">
        <route edges="T-intersection2incoming_LTL incoming2four-arm_LTL four-arm2WB"/>
    </vehicle>
    <vehicle id="38" depart="38.00">
        <route edges="NWB2four-arm_LTL four-arm2bend bend2T-intersection_LTL T-intersection2incoming_LTL incoming2four-arm_LTL four-arm2NWB"/>
    </vehicle>
    <vehicle id="39" depart="39.00">
        <route edges="NWB2four-arm_LTL four-arm2incoming"/>
    </vehicle>
    <vehicle id="40" depart="40.00">
        <route edges="NEB2incoming_LTL incoming2four-arm_LTL four-arm2bend bend2T-intersection_LTL T-intersection2incoming_LTL"/>
    </vehicle>
    <vehicle id="41" depart="41.00">
        <route edges="WB2four-arm_LTL four-arm2NWB"/>
    </vehicle>
    <vehicle id="42" depart="42.00">
        <route edges="SEB2T-intersection T-intersection2incoming_LTL incoming2four-arm_LTL"/>
    </vehicle>
    <vehicle id="43" depart="43.00">
        <route edges="SEB2T-intersection T-intersection2incoming_LTL incoming2EB"/>
    </vehicle>
    <vehicle id="44" depart="44.00">
        <route edges="T-intersection2incoming_LTL incoming2four-arm_LTL four-arm2bend"/>
    </vehicle>
    <vehicle id="45" depart="45.00">
        <route edges="WB2four-arm_LTL four-arm2NWB"/>
    </vehicle>
    <vehicle id="46" depart="46.00">
        <route edges="NWB2four-arm_LTL four-arm2incoming"/>
    </vehicle>
    <vehicle id="48" depart="48.00">
        <route edges="EB2incoming incoming2four-arm_LTL four-arm2WB"/>
    </vehicle>
    <vehicle id="51" depart="51.00">
        <route edges="SEB2T-intersection T-intersection2incoming_LTL"/>
    </vehicle>
    <vehicle id="53" depart="53.00">
        <route edges="T-intersection2incoming_LTL incoming2four-arm_LTL four-arm2bend bend2T-intersection_LTL"/>
    </vehicle>
    <vehicle id="54" depart="54.00">
        <route edges="four-arm2incoming"/>
    </vehicle>
    <vehicle id="55" depart="55.00">
        <route edges="SEB2T-intersection T-intersection2bend"/>
    </vehicle>
    <vehicle id="57" depart="57.00">
        <route edges="T-intersection2incoming_LTL incoming2four-arm_LTL four-arm2WB"/>
    </vehicle>
    <vehicle id="58" depart="58.00">
        <route edges="NEB2incoming_LTL incoming2four-arm_LTL"/>
    </vehicle>
    <vehicle id="59" depart="59.00">
        <route edges="SEB2T-intersection T-intersection2bend bend2four-arm_LTL"/>
    </vehicle>
    <vehicle id="60" depart="60.00">
        <route edges="NEB2incoming_LTL incoming2four-arm_LTL four-arm2NWB"/>
    </vehicle>
    <vehicle id="61" depart="61.00">
        <route edges="NEB2incoming_LTL incoming2four-arm_LTL four-arm2bend bend2T-intersection_LTL T-intersection2SEB"/>
    </vehicle>
    <vehicle id="62" depart="62.00">
        <route edges="SEB2T-intersection T-intersection2incoming_LTL incoming2four-arm_LTL"/>
    </vehicle>
    <vehicle id="63" depart="63.00">
        <route edges="bend2four-arm_LTL four-arm2incoming"/>
    </vehicle>
    <vehicle id="64" depart="64.00">
        <route edges="four-arm2incoming incoming2EB"/>
    </vehicle>
    <vehicle id="65" depart="65.00">
        <route edges="bend2T-intersection_LTL T-intersection2incoming_LTL incoming2EB"/>
    </vehicle>
    <vehicle id="66" depart="66.00">
        <route edges="NWB2four-arm_LTL four-arm2bend"/>
    </vehicle>
    <vehicle id="68" depart="68.00">
        <route edges="NWB2four-arm_LTL four-arm2bend bend2T-intersection_LTL T-intersection2incoming_LTL incoming2four-arm_LTL"/>
    </vehicle>
    <vehicle id="69" depart="69.00">
        <route edges="WB2four-arm_LTL four-arm2bend bend2T-intersection_LTL"/>
    </vehicle>
    <vehicle id="70" depart="70.00">
        <route edges="EB2incoming incoming2four-arm_LTL four-arm2bend"/>
    </vehicle>
    <vehicle id="72" depart="72.00">
        <route edges="bend2T-intersection_LTL T-intersection2incoming_LTL"/>
    </vehicle>
    <vehicle id="73" depart="73.00">
        <route edges="SEB2T-intersection T-intersection2incoming_LTL incoming2EB"/>
    </vehicle>
    <vehicle id="74" depart="74.00">
        <route edges="SEB2T-intersection T-intersection2bend bend2four-arm_LTL"/>
    </vehicle>
    <vehicle id="75" depart="75.00">
        <route edges="SEB2T-intersection T-intersection2incoming_LTL incoming2four-arm_LTL four-arm2NWB"/>
    </vehicle>
    <vehicle id="76" depart="76.00">
        <route edges="bend2four-arm_LTL four-arm2incoming"/>
    </vehicle>
    <vehicle id="78" depart="78.00">
        <route edges="EB2incoming incoming2four-arm_LTL four-arm2WB"/>
    </vehicle>
    <vehicle id="81" depart="81.00">
        <route edges="EB2incoming incoming2four-arm_LTL"/>
    </vehicle>
    <vehicle id="82" depart="82.00">
        <route edges="T-intersection2incoming_LTL incoming2four-arm_LTL four-arm2bend bend2T-intersection_LTL"/>
    </vehicle>
    <vehicle id="84" depart="84.00">
        <route edges="SEB2T-intersection T-intersection2bend"/>
    </vehicle>
    <vehicle id="85" depart="85.00">
        <route edges="SEB2T-intersection T-intersection2incoming_LTL incoming2four-arm_LTL four-arm2NWB"/>
    </vehicle>
    <vehicle id="86" depart="86.00">
        <route edges="EB2incoming incoming2four-arm_LTL four-arm2bend bend2T-intersection_LTL T-intersection2SEB"/>
    </vehicle>
    <vehicle id="87" depart="87.00">
        <route edges="NWB2four-arm_LTL four-arm2bend bend2T-intersection_LTL"/>
    </vehicle>
    <vehicle id="89" depart="89.00">
        <route edges="WB2four-arm_LTL four-arm2incoming"/>
    </vehicle>
    <vehicle id="90" depart="90.00">
        <route edges="incoming2four-arm_LTL four-arm2NWB"/>
    </vehicle>
    <vehicle id="91" depart="91.00">
        <route edges="WB2four-arm_LTL four-arm2bend bend2T-intersection_LTL T-intersection2incoming_LTL incoming2four-arm_LTL four-arm2WB"/>
    </vehicle>
    <vehicle id="92" depart="92.00">
        <route edges="WB2four-arm_LTL four-arm2incoming incoming2EB"/>
    </vehicle>
    <vehicle id="94" depart="94.00">
        <route edges="SEB2T-intersection T-intersection2incoming_LTL incoming2four-arm_LTL four-arm2NWB"/>
    </vehicle>
    <vehicle id="95" depart="95.00">
        <route edges="four-arm2bend bend2T-intersection_LTL T-intersection2incoming_LTL"/>
    </vehicle>
    <vehicle id="96" depart="96.00">
        <route edges="bend2four-arm_LTL four-arm2incoming incoming2EB"/>
    </vehicle>
    <vehicle id="99" depart="99.00">
        <route edges="WB2four-arm_LTL four-arm2bend bend2T-intersection_LTL"/>
    </vehicle>
    <vehicle id="100" depart="100.00">
        <route edges="incoming2four-arm_LTL four-arm2bend bend2T-intersection_LTL T-intersection2incoming_LTL"/>
    </vehicle>
    <vehicle id="101" depart="101.00">
        <route edges="incoming2four-arm_LTL four-arm2bend bend2T-intersection_LTL"/>
    </vehicle>
    <vehicle id="102" depart="102.00">
        <route edges="T-intersection2incoming_LTL"/>
    </vehicle>
    <vehicle id="103" depart="103.00">
        <route edges="NEB2incoming_LTL incoming2four-arm_LTL four-arm2bend"/>
    </vehicle>
    <vehicle id="104" depart="104.00">
        <route edges="bend2four-arm_LTL four-arm2incoming"/>
    </vehicle>
    <vehicle id="106" depart="106.00">
        <route edges="four-arm2bend bend2T-intersection_LTL T-intersection2incoming_LTL"/>
    </vehicle>
    <vehicle id="107" depart="107.00">
        <route edges="bend2four-arm_LTL four-arm2incoming incoming2EB"/>
    </vehicle>
    <vehicle id="109" depart="109.00">
        <route edges="four-arm2bend bend2T-intersection_LTL T-intersection2incoming_LTL"/>
    </vehicle>
    <vehicle id="111" depart="111.00">
        <route edges="WB2four-arm_LTL four-arm2incoming incoming2EB"/>
    </vehicle>
    <vehicle id="112" depart="112.00">
        <route edges="NWB2four-arm_LTL four-arm2bend bend2T-intersection_LTL T-intersection2incoming_LTL"/>
    </vehicle>
    <vehicle id="116" depart="116.00">
        <route edges="T-intersection2incoming_LTL incoming2EB"/>
    </vehicle>
    <vehicle id="117" depart="117.00">
        <route edges="T-intersection2incoming_LTL incoming2four-arm_LTL"/>
    </vehicle>
    <vehicle id="118" depart="118.00">
        <route edges="incoming2four-arm_LTL four-arm2bend"/>
    </vehicle>
    <vehicle id="119" depart="119.00">
        <route edges="EB2incoming incoming2four-arm_LTL four-arm2NWB"/>
    </vehicle>
    <vehicle id="120" depart="120.00">
        <route edges="four-arm2bend bend2T-intersection_LTL T-intersection2incoming_LTL incoming2four-arm_LTL"/>
    </vehicle>
    <vehicle id="123" depart="123.00">
        <route edges="NWB2four-arm_LTL four-arm2incoming"/>
    </vehicle>
    <vehicle id="124" depart="124.00">
        <route edges="bend2T-intersection_LTL T-intersection2incoming_LTL incoming2four-arm_LTL four-arm2NWB"/>
    </vehicle>
    <vehicle id="125" depart="125.00">
        <route edges="EB2incoming incoming2four-arm_LTL four-arm2bend"/>
    </vehicle>
    <vehicle id="126" depart="126.00">
        <route edges="NWB2four-arm_LTL four-arm2bend bend2T-intersection_LTL T-intersection2SEB"/>
    </vehicle>
    <vehicle id="127" depart="127.00">
        <route edges="bend2T-intersection_LTL T-intersection2incoming_LTL incoming2four-arm_LTL"/>
    </vehicle>
    <vehicle id="128" depart="128.00">
        <route edges="WB2four-arm_LTL four-arm2bend bend2T-intersection_LTL T-intersection2SEB"/>
    </vehicle>
    <vehicle id="129" depart="129.00">
        <route edges="T-intersection2bend bend2four-arm_LTL four-arm2incoming"/>
    </vehicle>
    <vehicle id="130" depart="130.00">
        <route edges="WB2four-arm_LTL four-arm2bend bend2T-intersection_LTL T-intersection2incoming_LTL incoming2four-arm_LTL four-arm2WB"/>
    </vehicle>
    <vehicle id="131" depart="131.00">
        <route edges="T-intersection2bend bend2four-arm_LTL four-arm2NWB"/>
    </vehicle>
    <vehicle id="132" depart="132.00">
        <route edges="NWB2four-arm_LTL four-arm2WB"/>
    </vehicle>
    <vehicle id="133" depart="133.00">
        <route edges="four-arm2bend bend2T-intersection_LTL T-intersection2incoming_LTL incoming2EB"/>
    </vehicle>
    <vehicle id="134" depart="134.00">
        <route edges="incoming2four-arm_LTL four-arm2bend bend2T-intersection_LTL T-intersection2incoming_LTL"/>
    </vehicle>
    <vehicle id="135" depart="135.00">
        <route edges="four-arm2incoming"/>
    </vehicle>
    <vehicle id="137" depart="137.00">
        <route edges="incoming2four-arm_LTL four-arm2bend bend2T-intersection_LTL T-intersection2incoming_LTL"/>
    </vehicle>
    <vehicle id="138" depart="138.00">
        <route edges="T-intersection2incoming_LTL incoming2four-arm_LTL four-arm2WB"/>
    </vehicle>
    <vehicle id="139" depart="139.00">
        <route edges="WB2four-arm_LTL four-arm2bend bend2T-intersection_LTL"/>
    </vehicle>
    <vehicle id="140" depart="140.00">
        <route edges="NEB2incoming_LTL incoming2four-arm_LTL"/>
    </vehicle>
    <vehicle id="141" depart="141.00">
        <route edges="NEB2incoming_LTL incoming2four-arm_LTL four-arm2bend bend2T-intersection_LTL T-intersection2SEB"/>
    </vehicle>
    <vehicle id="143" depart="143.00">
        <route edges="SEB2T-intersection T-intersection2incoming_LTL incoming2four-arm_LTL four-arm2NWB"/>
    </vehicle>
    <vehicle id="146" depart="146.00">
        <route edges="SEB2T-intersection T-intersection2incoming_LTL incoming2EB"/>
    </vehicle>
    <vehicle id="148" depart="148.00">
        <route edges="incoming2four-arm_LTL four-arm2bend bend2T-intersection_LTL T-intersection2SEB"/>
    </vehicle>
    <vehicle id="149" depart="149.00">
        <route edges="T-intersection2incoming_LTL incoming2four-arm_LTL four-arm2bend bend2T-intersection_LTL T-intersection2SEB"/>
    </vehicle>
    <vehicle id="151" depart="151.00">
        <route edges="WB2four-arm_LTL four-arm2bend bend2T-intersection_LTL T-intersection2incoming_LTL incoming2four-arm_LTL four-arm2WB"/>
    </vehicle>
    <vehicle id="152" depart="152.00">
        <route edges="WB2four-arm_LTL four-arm2NWB"/>
    </vehicle>
    <vehicle id="153" depart="153.00">
        <route edges="NWB2four-arm_LTL four-arm2bend bend2T-intersection_LTL T-intersection2SEB"/>
    </vehicle>
    <vehicle id="154" depart="154.00">
        <route edges="four-arm2bend bend2T-intersection_LTL T-intersection2incoming_LTL incoming2four-arm_LTL four-arm2WB"/>
    </vehicle>
    <vehicle id="155" depart="155.00">
        <route edges="four-arm2bend bend2T-intersection_LTL T-intersection2SEB"/>
    </vehicle>
    <vehicle id="156" depart="156.00">
        <route edges="T-intersection2incoming_LTL incoming2four-arm_LTL four-arm2WB"/>
    </vehicle>
    <vehicle id="157" depart="157.00">
        <route edges="EB2incoming incoming2four-arm_LTL four-arm2bend bend2T-intersection_LTL T-intersection2SEB"/>
    </vehicle>
    <vehicle id="158" depart="158.00">
        <route edges="T-intersection2bend bend2four-arm_LTL four-arm2NWB"/>
    </vehicle>
    <vehicle id="160" depart="160.00">
        <route edges="SEB2T-intersection T-intersection2incoming_LTL incoming2EB"/>
    </vehicle>
    <vehicle id="161" depart="161.00">
        <route edges="NEB2incoming_LTL incoming2four-arm_LTL four-arm2bend"/>
    </vehicle>
    <vehicle id="162" depart="162.00">
        <route edges="NWB2four-arm_LTL four-arm2bend bend2T-intersection_LTL T-intersection2incoming_LTL incoming2four-arm_LTL four-arm2NWB"/>
    </vehicle>
    <vehicle id="163" depart="163.00">
        <route edges="bend2T-intersection_LTL T-intersection2SEB"/>
    </vehicle>
    <vehicle id="164" depart="164.00">
        <route edges="WB2four-arm_LTL four-arm2incoming"/>
    </vehicle>
    <vehicle id="166" depart="166.00">
        <route edges="T-intersection2bend bend2four-arm_LTL four-arm2NWB"/>
    </vehicle>
    <vehicle id="167" depart="167.00">
        <route edges="SEB2T-intersection T-intersection2bend"/>
    </vehicle>
    <vehicle id="168" depart="168.00">
        <route edges="SEB2T-intersection T-intersection2incoming_LTL incoming2four-arm_LTL four-arm2WB"/>
    </vehicle>
    <vehicle id="171" depart="171.00">
        <route edges="EB2incoming incoming2four-arm_LTL four-arm2bend bend2T-intersection_LTL T-intersection2incoming_LTL incoming2EB"/>
    </vehicle>
    <vehicle id="172" depart="172.00">
        <route edges="four-arm2bend bend2T-intersection_LTL T-intersection2incoming_LTL incoming2four-arm_LTL four-arm2WB"/>
    </vehicle>
    <vehicle id="174" depart="174.00">
        <route edges="bend2four-arm_LTL"/>
    </vehicle>
    <vehicle id="175" depart="175.00">
        <route edges="four-arm2bend bend2T-intersection_LTL T-intersection2incoming_LTL incoming2four-arm_LTL four-arm2NWB"/>
    </vehicle>
    <vehicle id="176" depart="176.00">
        <route edges="WB2four-arm_LTL four-arm2incoming incoming2EB"/>
    </vehicle>
    <vehicle id="177" depart="177.00">
        <route edges="four-arm2bend bend2T-intersection_LTL T-intersection2incoming_LTL"/>
    </vehicle>
    <vehicle id="179" depart="179.00">
        <route edges="SEB2T-intersection T-intersection2incoming_LTL incoming2four-arm_LTL four-arm2bend"/>
    </vehicle>
    <vehicle id="181" depart="181.00">
        <route edges="EB2incoming incoming2four-arm_LTL four-arm2WB"/>
    </vehicle>
    <vehicle id="182" depart="182.00">
        <route edges="bend2T-intersection_LTL T-intersection2incoming_LTL incoming2four-arm_LTL four-arm2WB"/>
    </vehicle>
    <vehicle id="183" depart="183.00">
        <route edges="SEB2T-intersection T-intersection2incoming_LTL incoming2four-arm_LTL four-arm2bend bend2T-intersection_LTL"/>
    </vehicle>
    <vehicle id="184" depart="184.00">
        <route edges="NEB2incoming_LTL incoming2four-arm_LTL four-arm2bend"/>
    </vehicle>
    <vehicle id="187" depart="187.00">
        <route edges="bend2T-intersection_LTL T-intersection2incoming_LTL incoming2four-arm_LTL four-arm2WB"/>
    </vehicle>
    <vehicle id="188" depart="188.00">
        <route edges="SEB2T-intersection T-intersection2incoming_LTL incoming2four-arm_LTL four-arm2NWB"/>
    </vehicle>
    <vehicle id="191" depart="191.00">
        <route edges="T-intersection2incoming_LTL incoming2four-arm_LTL"/>
    </vehicle>
    <vehicle id="192" depart="192.00">
        <route edges="NEB2incoming_LTL incoming2four-arm_LTL"/>
    </vehicle>
    <vehicle id="194" depart="194.00">
        <route edges="incoming2four-arm_LTL four-arm2bend bend2T-intersection_LTL T-intersection2SEB"/>
    </vehicle>
    <vehicle id="195" depart="195.00">
        <route edges="four-arm2bend bend2T-intersection_LTL T-intersection2incoming_LTL incoming2four-arm_LTL"/>
    </vehicle>
    <vehicle id="196" depart="196.00">
        <route edges="SEB2T-intersection T-intersection2incoming_LTL incoming2four-arm_LTL"/>
    </vehicle>
    <vehicle id="197" depart="197.00">
        <route edges="WB2four-arm_LTL four-arm2bend bend2T-intersection_LTL"/>
    </vehicle>
    <vehicle id="201" depart="201.00">
        <route edges="NWB2four-arm_LTL four-arm2bend bend2T-intersection_LTL T-intersection2incoming_LTL incoming2four-arm_LTL"/>
    </vehicle>
    <vehicle id="202" depart="202.00">
        <route edges="EB2incoming incoming2four-arm_LTL four-arm2bend"/>
    </vehicle>
    <vehicle id="203" depart="203.00">
        <route edges="SEB2T-intersection T-intersection2incoming_LTL incoming2EB"/>
    </vehicle>
    <vehicle id="204" depart="204.00">
        <route edges="T-intersection2bend bend2four-arm_LTL four-arm2WB"/>
    </vehicle>
    <vehicle id="205" depart="205.00">
        <route edges="NWB2four-arm_LTL four-arm2bend bend2T-intersection_LTL T-intersection2incoming_LTL"/>
    </vehicle>
    <vehicle id="206" depart="206.00">
        <route edges="four-arm2bend bend2T-intersection_LTL T-intersection2incoming_LTL"/>
    </vehicle>
    <vehicle id="207" depart="207.00">
        <route edges="T-intersection2bend bend2four-arm_LTL"/>
    </vehicle>
    <vehicle id="208" depart="208.00">
        <route edges="NEB2incoming_LTL incoming2four-arm_LTL four-arm2bend"/>
    </vehicle>
    <vehicle id="213" depart="213.00">
        <route edges="bend2T-intersection_LTL T-intersection2incoming_LTL incoming2four-arm_LTL"/>
    </vehicle>
    <vehicle id="214" depart="214.00">
        <route edges="NWB2four-arm_LTL four-arm2incoming"/>
    </vehicle>
    <vehicle id="215" depart="215.00">
        <route edges="T-intersection2bend bend2four-arm_LTL four-arm2WB"/>
    </vehicle>
    <vehicle id="218" depart="218.00">
        <route edges="SEB2T-intersection T-intersection2incoming_LTL incoming2four-arm_LTL four-arm2WB"/>
    </vehicle>
    <vehicle id="221" depart="221.00">
        <route edges="bend2T-intersection_LTL T-intersection2incoming_LTL"/>
    </vehicle>
    <vehicle id="222" depart="222.00">
        <route edges="bend2T-intersection_LTL T-intersection2incoming_LTL incoming2four-arm_LTL four-arm2NWB"/>
    </vehicle>
    <vehicle id="223" depart="223.00">
        <route edges="bend2four-arm_LTL four-arm2WB"/>
    </vehicle>
    <vehicle id="224" depart="224.00">
        <route edges="EB2incoming incoming2four-arm_LTL four-arm2bend bend2T-intersection_LTL T-intersection2SEB"/>
    </vehicle>
    <vehicle id="225" depart="225.00">
        <route edges="T-intersection2incoming_LTL incoming2four-arm_LTL four-arm2NWB"/>
    </vehicle>
    <vehicle id="226" depart="226.00">
        <route edges="incoming2four-arm_LTL four-arm2bend"/>
    </vehicle>
    <vehicle id="227" depart="227.00">
        <route edges="incoming2four-arm_LTL four-arm2bend bend2T-intersection_LTL"/>
    </vehicle>
    <vehicle id="228" depart="228.00">
        <route edges="NWB2four-arm_LTL four-arm2bend"/>
    </vehicle>
    <vehicle id="229" depart="229.00">
        <route edges="SEB2T-intersection T-intersection2incoming_LTL incoming2four-arm_LTL four-arm2bend bend2T-intersection_LTL T-intersection2SEB"/>
    </vehicle>
    <vehicle id="230" depart="230.00">
        <route edges="NEB2incoming_LTL incoming2four-arm_LTL four-arm2bend"/>
    </vehicle>
    <vehicle id="231" depart="231.00">
        <route edges="NEB2incoming_LTL incoming2four-arm_LTL four-arm2bend bend2T-intersection_LTL"/>
    </vehicle>
    <vehicle id="232" depart="232.00">
        <route edges="NEB2incoming_LTL incoming2four-arm_LTL four-arm2bend bend2T-intersection_LTL"/>
    </vehicle>
    <vehicle id="233" depart="233.00">
        <route edges="bend2T-intersection_LTL T-intersection2incoming_LTL incoming2four-arm_LTL four-arm2bend"/>
    </vehicle>
    <vehicle id="234" depart="234.00">
        <route edges="bend2four-arm_LTL"/>
    </vehicle>
    <vehicle id="235" depart="235.00">
        <route edges="four-arm2bend"/>
    </vehicle>
    <vehicle id="236" depart="236.00">
        <route edges="four-arm2bend bend2T-intersection_LTL T-intersection2incoming_LTL"/>
    </vehicle>
    <vehicle id="237" depart="237.00">
        <route edges="EB2incoming incoming2four-arm_LTL four-arm2bend bend2T-intersection_LTL"/>
    </vehicle>
    <vehicle id="238" depart="238.00">
        <route edges="T-intersection2bend bend2four-arm_LTL four-arm2incoming incoming2EB"/>
    </vehicle>
    <vehicle id="239" depart="239.00">
        <route edges="SEB2T-intersection T-intersection2incoming_LTL incoming2four-arm_LTL four-arm2NWB"/>
    </vehicle>
    <vehicle id="240" depart="240.00">
        <route edges="WB2four-arm_LTL four-arm2NWB"/>
    </vehicle>
    <vehicle id="241" depart="241.00">
        <route edges="NWB2four-arm_LTL four-arm2bend bend2T-intersection_LTL T-intersection2incoming_LTL incoming2four-arm_LTL"/>
    </vehicle>
    <vehicle id="242" depart="242.00">
        <route edges="EB2incoming incoming2four-arm_LTL four-arm2bend"/>
    </vehicle>
    <vehicle id="243" depart="243.00">
        <route edges="NWB2four-arm_LTL four-arm2bend bend2T-intersection_LTL T-intersection2incoming_LTL incoming2four-arm_LTL"/>
    </vehicle>
    <vehicle id="245" depart="245.00">
        <route edges="bend2T-intersection_LTL T-intersection2incoming_LTL incoming2four-arm_LTL four-arm2WB"/>
    </vehicle>
    <vehicle id="246" depart="246.00">
        <route edges="SEB2T-intersection T-intersection2incoming_LTL incoming2four-arm_LTL four-arm2WB"/>
    </vehicle>
    <vehicle id="247" depart="247.00">
        <route edges="SEB2T-intersection T-intersection2incoming_LTL incoming2four-arm_LTL four-arm2bend bend2T-intersection_LTL"/>
    </vehicle>
    <vehicle id="248" depart="248.00">
        <route edges="four-arm2incoming"/>
    </vehicle>
    <vehicle id="250" depart="250.00">
        <route edges="WB2four-arm_LTL four-arm2bend bend2T-intersection_LTL T-intersection2incoming_LTL"/>
    </vehicle>
    <vehicle id="251" depart="251.00">
        <route edges="NEB2incoming_LTL incoming2four-arm_LTL four-arm2bend bend2T-intersection_LTL T-intersection2incoming_LTL"/>
    </vehicle>
    <vehicle id="252" depart="252.00">
        <route edges="SEB2T-intersection T-intersection2bend bend2four-arm_LTL four-arm2incoming"/>
    </vehicle>
    <vehicle id="253" depart="253.00">
        <route edges="SEB2T-intersection T-intersection2incoming_LTL incoming2four-arm_LTL four-arm2WB"/>
    </vehicle>
    <vehicle id="254" depart="254.00">
        <route edges="EB2incoming incoming2four-arm_LTL"/>
    </vehicle>
    <vehicle id="255" depart="255.00">
        <route edges="bend2four-arm_LTL four-arm2incoming"/>
    </vehicle>
    <vehicle id="256" depart="256.00">
        <route edges="bend2T-intersection_LTL T-intersection2incoming_LTL incoming2EB"/>
    </vehicle>
    <vehicle id="257" depart="257.00">
        <route edges="four-arm2bend bend2T-intersection_LTL T-intersection2SEB"/>
    </vehicle>
    <vehicle id="258" depart="258.00">
        <route edges="WB2four-arm_LTL four-arm2bend bend2T-intersection_LTL T-intersection2incoming_LTL"/>
    </vehicle>
    <vehicle id="259" depart="259.00">
        <route edges="bend2T-intersection_LTL T-intersection2incoming_LTL incoming2four-arm_LTL four-arm2NWB"/>
    </vehicle>
    <vehicle id="261" depart="261.00">
        <route edges="SEB2T-intersection T-intersection2incoming_LTL incoming2four-arm_LTL four-arm2WB"/>
    </vehicle>
    <vehicle id="263" depart="263.00">
        <route edges="SEB2T-intersection T-intersection2incoming_LTL incoming2four-arm_LTL four-arm2bend bend2T-intersection_LTL T-intersection2SEB"/>
    </vehicle>
    <vehicle id="264" depart="264.00">