<routes>
    <vType id="car"
            vClass="passenger"  length="5" accel="3.5" decel="2.2"
            sigma="1.0" maxSpeed="10"/>

    <vType id="bus"
        vClass="passenger"  length="10" accel="2.5" decel="1.2"
        sigma="1.0" maxSpeed="7" guiShape="bus"/>

    <vType id="ev"
            vClass="emergency"  length="5" accel="5.5" decel="2.2" sigma="1.0" 
            maxSpeed="20" guiShape="emergency" speedFactor="2.0"
            minGapLat="0.2"/>
    
    <route id="route_0" edges ="WB2four-arm four-arm2incoming">
</routes>
