<configuration> 
    <input> 
        <net-file value="simpleNetwork.net.xml"/> 
        <route-files value="routes300.rou.xml"/> 
    </input> 
    
    <time> 
        <begin value="0"/> <end value="2000"/> 
    </time> 

</configuration>