<?xml version="1.0" encoding="UTF-8"?>

<routes xmlns:xsi="http://www.w3.org/2001/XMLSchema-instance" xsi:noNamespaceSchemaLocation="http://sumo.dlr.de/xsd/routes_file.xsd">

    <!-- Emergency Vehicle Type -->
    <vType id="FireTruck" vClass="emergency" guiShape="firebrigade"/>
    <vType id="Ambulance" vClass="emergency" guiShape="emergency"/>
    <vType id="PoliceCar" vClass="emergency" guiShape="police"/>
<vehicle id="193" depart="193">
    <route edges="NWB2four-arm_LTL four-arm2bend bend2T-intersection_LTL T-intersection2incoming_LTL incoming2four-arm_LTL four-arm2NWB"/>
</vehicle>
<vehicle id="143" depart="143">
    <route edges="SEB2T-intersection T-intersection2incoming_LTL incoming2EB"/>
</vehicle>
<vehicle id="203" depart="203" type="Ambulance">
    <route edges="T-intersection2bend bend2four-arm_LTL four-arm2NWB"/>
</vehicle>
<vehicle id="147" depart="147" type="FireTruck">
    <route edges="T-intersection2incoming_LTL incoming2four-arm_LTL four-arm2NWB"/>
</vehicle>
<vehicle id="12" depart="12" type="PoliceCar">
    <route edges="four-arm2bend bend2T-intersection_LTL T-intersection2incoming_LTL incoming2four-arm_LTL four-arm2WB"/>
</vehicle>
<vehicle id="295" depart="295" type="FireTruck">
    <route edges="T-intersection2incoming_LTL incoming2four-arm_LTL"/>
</vehicle>
<vehicle id="200" depart="200" type="Ambulance">
    <route edges="SEB2T-intersection T-intersection2incoming_LTL incoming2four-arm_LTL four-arm2NWB"/>
</vehicle>
<vehicle id="271" depart="271" type="PoliceCar">
    <route edges="bend2T-intersection_LTL T-intersection2incoming_LTL"/>
</vehicle>
<vehicle id="295" depart="295" type="Ambulance">
    <route edges="EB2incoming incoming2four-arm_LTL four-arm2NWB"/>
</vehicle>
<vehicle id="224" depart="224">
    <route edges="NWB2four-arm_LTL four-arm2incoming"/>
</vehicle>
<vehicle id="170" depart="170" type="PoliceCar">
    <route edges="SEB2T-intersection T-intersection2incoming_LTL incoming2four-arm_LTL four-arm2WB"/>
</vehicle>
<vehicle id="110" depart="110">
    <route edges="T-intersection2incoming_LTL"/>
</vehicle>
<vehicle id="22" depart="22" type="PoliceCar">
    <route edges="EB2incoming incoming2four-arm_LTL four-arm2WB"/>
</vehicle>
<vehicle id="60" depart="60">
    <route edges="NWB2four-arm_LTL four-arm2bend bend2T-intersection_LTL T-intersection2incoming_LTL incoming2four-arm_LTL"/>
</vehicle>
<vehicle id="81" depart="81">
    <route edges="SEB2T-intersection T-intersection2incoming_LTL incoming2four-arm_LTL four-arm2WB"/>
</vehicle>
<vehicle id="120" depart="120">
    <route edges="NEB2incoming_LTL incoming2four-arm_LTL four-arm2bend"/>
</vehicle>
<vehicle id="265" depart="265" type="FireTruck">
    <route edges="bend2four-arm_LTL four-arm2incoming incoming2EB"/>
</vehicle>
<vehicle id="51" depart="51">
    <route edges="T-intersection2incoming_LTL incoming2four-arm_LTL four-arm2WB"/>
</vehicle>
<vehicle id="118" depart="118" type="Ambulance">
    <route edges="WB2four-arm_LTL four-arm2incoming"/>
</vehicle>
<vehicle id="225" depart="225" type="FireTruck">
    <route edges="WB2four-arm_LTL four-arm2bend"/>
</vehicle>
<vehicle id="156" depart="156">
    <route edges="SEB2T-intersection T-intersection2bend bend2four-arm_LTL four-arm2incoming"/>
</vehicle>
<vehicle id="260" depart="260" type="PoliceCar">
    <route edges="T-intersection2incoming_LTL incoming2four-arm_LTL"/>
</vehicle>
<vehicle id="15" depart="15" type="PoliceCar">
    <route edges="NWB2four-arm_LTL four-arm2bend bend2T-intersection_LTL T-intersection2incoming_LTL"/>
</vehicle>
<vehicle id="192" depart="192" type="Ambulance">
    <route edges="NWB2four-arm_LTL four-arm2bend bend2T-intersection_LTL T-intersection2incoming_LTL"/>
</vehicle>
<vehicle id="90" depart="90">
    <route edges="NWB2four-arm_LTL four-arm2bend"/>
</vehicle>
<vehicle id="197" depart="197">
    <route edges="T-intersection2incoming_LTL"/>
</vehicle>
<vehicle id="64" depart="64">
    <route edges="NWB2four-arm_LTL four-arm2bend"/>
</vehicle>
<vehicle id="70" depart="70">
    <route edges="four-arm2bend bend2T-intersection_LTL T-intersection2incoming_LTL"/>
</vehicle>
<vehicle id="49" depart="49">
    <route edges="SEB2T-intersection T-intersection2bend bend2four-arm_LTL"/>
</vehicle>
<vehicle id="128" depart="128">
    <route edges="incoming2four-arm_LTL four-arm2NWB"/>
</vehicle>
<vehicle id="72" depart="72" type="FireTruck">
    <route edges="NEB2incoming_LTL incoming2four-arm_LTL"/>
</vehicle>
<vehicle id="152" depart="152" type="Ambulance">
    <route edges="SEB2T-intersection T-intersection2bend"/>
</vehicle>
<vehicle id="90" depart="90">
    <route edges="bend2four-arm_LTL"/>
</vehicle>
<vehicle id="81" depart="81">
    <route edges="incoming2four-arm_LTL four-arm2bend bend2T-intersection_LTL"/>
</vehicle>
<vehicle id="177" depart="177" type="PoliceCar">
    <route edges="NWB2four-arm_LTL four-arm2bend bend2T-intersection_LTL T-intersection2incoming_LTL incoming2four-arm_LTL"/>
</vehicle>
<vehicle id="242" depart="242">
    <route edges="bend2four-arm_LTL four-arm2incoming incoming2EB"/>
</vehicle>
<vehicle id="144" depart="144" type="PoliceCar">
    <route edges="incoming2four-arm_LTL four-arm2bend bend2T-intersection_LTL T-intersection2incoming_LTL"/>
</vehicle>
<vehicle id="229" depart="229" type="PoliceCar">
    <route edges="T-intersection2incoming_LTL incoming2four-arm_LTL four-arm2NWB"/>
</vehicle>
<vehicle id="92" depart="92">
    <route edges="NWB2four-arm_LTL four-arm2bend bend2T-intersection_LTL T-intersection2incoming_LTL"/>
</vehicle>
<vehicle id="295" depart="295" type="Ambulance">
    <route edges="NWB2four-arm_LTL four-arm2bend bend2T-intersection_LTL T-intersection2incoming_LTL incoming2four-arm_LTL"/>
</vehicle>
<vehicle id="25" depart="25">
    <route edges="four-arm2bend bend2T-intersection_LTL T-intersection2incoming_LTL"/>
</vehicle>
<vehicle id="258" depart="258" type="FireTruck">
    <route edges="NEB2incoming_LTL incoming2four-arm_LTL"/>
</vehicle>
<vehicle id="203" depart="203" type="Ambulance">
    <route edges="incoming2four-arm_LTL four-arm2bend bend2T-intersection_LTL T-intersection2incoming_LTL"/>
</vehicle>
<vehicle id="284" depart="284" type="FireTruck">
    <route edges="four-arm2bend bend2T-intersection_LTL T-intersection2incoming_LTL"/>
</vehicle>
<vehicle id="127" depart="127" type="FireTruck">
    <route edges="SEB2T-intersection T-intersection2bend bend2four-arm_LTL four-arm2incoming"/>
</vehicle>
<vehicle id="58" depart="58">
    <route edges="SEB2T-intersection T-intersection2incoming_LTL incoming2four-arm_LTL four-arm2bend"/>
</vehicle>
<vehicle id="211" depart="211" type="PoliceCar">
    <route edges="SEB2T-intersection T-intersection2incoming_LTL incoming2EB"/>
</vehicle>
<vehicle id="193" depart="193" type="FireTruck">
    <route edges="bend2T-intersection_LTL T-intersection2incoming_LTL incoming2four-arm_LTL four-arm2NWB"/>
</vehicle>
<vehicle id="174" depart="174" type="FireTruck">
    <route edges="NEB2incoming_LTL incoming2four-arm_LTL four-arm2bend bend2T-intersection_LTL T-intersection2SEB"/>
</vehicle>
<vehicle id="199" depart="199">
    <route edges="four-arm2incoming"/>
</vehicle>
<vehicle id="272" depart="272" type="Ambulance">
    <route edges="four-arm2bend bend2T-intersection_LTL T-intersection2SEB"/>
</vehicle>
<vehicle id="295" depart="295">
    <route edges="incoming2four-arm_LTL four-arm2bend bend2T-intersection_LTL"/>
</vehicle>
<vehicle id="43" depart="43" type="Ambulance">
    <route edges="T-intersection2incoming_LTL incoming2four-arm_LTL four-arm2WB"/>
</vehicle>
<vehicle id="292" depart="292">
    <route edges="NEB2incoming_LTL incoming2EB"/>
</vehicle>
<vehicle id="136" depart="136" type="FireTruck">
    <route edges="NWB2four-arm_LTL four-arm2bend bend2T-intersection_LTL T-intersection2incoming_LTL incoming2four-arm_LTL"/>
</vehicle>
<vehicle id="186" depart="186">
    <route edges="incoming2four-arm_LTL four-arm2bend bend2T-intersection_LTL T-intersection2incoming_LTL"/>
</vehicle>
<vehicle id="197" depart="197">
    <route edges="incoming2four-arm_LTL four-arm2bend bend2T-intersection_LTL T-intersection2SEB"/>
</vehicle>
<vehicle id="207" depart="207">
    <route edges="SEB2T-intersection T-intersection2incoming_LTL incoming2EB"/>
</vehicle>
<vehicle id="300" depart="300">
    <route edges="SEB2T-intersection T-intersection2incoming_LTL incoming2four-arm_LTL four-arm2bend bend2T-intersection_LTL"/>
</vehicle>
<vehicle id="10" depart="10">
    <route edges="NEB2incoming_LTL incoming2four-arm_LTL four-arm2bend"/>
</vehicle>
<vehicle id="130" depart="130">
    <route edges="incoming2four-arm_LTL four-arm2bend bend2T-intersection_LTL"/>
</vehicle>
<vehicle id="216" depart="216">
    <route edges="incoming2four-arm_LTL four-arm2bend bend2T-intersection_LTL T-intersection2incoming_LTL"/>
</vehicle>
<vehicle id="125" depart="125">
    <route edges="T-intersection2bend bend2four-arm_LTL"/>
</vehicle>
<vehicle id="29" depart="29">
    <route edges="WB2four-arm_LTL four-arm2incoming incoming2EB"/>
</vehicle>
<vehicle id="300" depart="300">
    <route edges="SEB2T-intersection T-intersection2bend bend2four-arm_LTL four-arm2incoming"/>
</vehicle>
<vehicle id="273" depart="273" type="PoliceCar">
    <route edges="bend2T-intersection_LTL T-intersection2incoming_LTL incoming2four-arm_LTL"/>
</vehicle>
<vehicle id="223" depart="223" type="PoliceCar">
    <route edges="NWB2four-arm_LTL four-arm2bend"/>
</vehicle>
<vehicle id="177" depart="177" type="PoliceCar">
    <route edges="NWB2four-arm_LTL four-arm2bend bend2T-intersection_LTL T-intersection2SEB"/>
</vehicle>
<vehicle id="55" depart="55" type="PoliceCar">
    <route edges="NEB2incoming_LTL incoming2four-arm_LTL four-arm2bend"/>
</vehicle>
<vehicle id="56" depart="56" type="Ambulance">
    <route edges="T-intersection2bend bend2four-arm_LTL four-arm2incoming incoming2EB"/>
</vehicle>
<vehicle id="44" depart="44">
    <route edges="bend2T-intersection_LTL T-intersection2incoming_LTL"/>
</vehicle>
<vehicle id="9" depart="9" type="Ambulance">
    <route edges="four-arm2incoming"/>
</vehicle>
<vehicle id="250" depart="250" type="FireTruck">
    <route edges="incoming2four-arm_LTL four-arm2bend bend2T-intersection_LTL T-intersection2SEB"/>
</vehicle>
<vehicle id="107" depart="107" type="FireTruck">
    <route edges="four-arm2bend bend2T-intersection_LTL"/>
</vehicle>
<vehicle id="161" depart="161">
    <route edges="SEB2T-intersection T-intersection2incoming_LTL incoming2EB"/>
</vehicle>
<vehicle id="275" depart="275">
    <route edges="T-intersection2incoming_LTL incoming2four-arm_LTL four-arm2NWB"/>
</vehicle>
<vehicle id="207" depart="207" type="FireTruck">
    <route edges="T-intersection2incoming_LTL"/>
</vehicle>
<vehicle id="236" depart="236">
    <route edges="four-arm2bend bend2T-intersection_LTL T-intersection2SEB"/>
</vehicle>
<vehicle id="101" depart="101" type="PoliceCar">
    <route edges="NEB2incoming_LTL incoming2four-arm_LTL four-arm2bend"/>
</vehicle>
<vehicle id="141" depart="141">
    <route edges="four-arm2bend bend2T-intersection_LTL T-intersection2incoming_LTL"/>
</vehicle>
<vehicle id="52" depart="52" type="Ambulance">
    <route edges="bend2T-intersection_LTL T-intersection2incoming_LTL incoming2four-arm_LTL four-arm2bend"/>
</vehicle>
<vehicle id="144" depart="144" type="Ambulance">
    <route edges="WB2four-arm_LTL four-arm2NWB"/>
</vehicle>
<vehicle id="155" depart="155" type="PoliceCar">
    <route edges="NEB2incoming_LTL incoming2four-arm_LTL"/>
</vehicle>
<vehicle id="213" depart="213" type="PoliceCar">
    <route edges="bend2four-arm_LTL four-arm2incoming"/>
</vehicle>
<vehicle id="81" depart="81">
    <route edges="SEB2T-intersection T-intersection2incoming_LTL incoming2four-arm_LTL four-arm2NWB"/>
</vehicle>
<vehicle id="20" depart="20">
    <route edges="incoming2four-arm_LTL four-arm2NWB"/>
</vehicle>
<vehicle id="18" depart="18">
    <route edges="T-intersection2incoming_LTL incoming2four-arm_LTL four-arm2bend bend2T-intersection_LTL T-intersection2SEB"/>
</vehicle>
<vehicle id="52" depart="52" type="FireTruck">
    <route edges="bend2T-intersection_LTL T-intersection2SEB"/>
</vehicle>
<vehicle id="168" depart="168">
    <route edges="NWB2four-arm_LTL four-arm2bend"/>
</vehicle>
<vehicle id="152" depart="152">
    <route edges="bend2four-arm_LTL four-arm2incoming"/>
</vehicle>
<vehicle id="71" depart="71" type="FireTruck">
    <route edges="four-arm2bend bend2T-intersection_LTL T-intersection2incoming_LTL"/>
</vehicle>
<vehicle id="271" depart="271" type="Ambulance">
    <route edges="EB2incoming incoming2four-arm_LTL four-arm2bend bend2T-intersection_LTL T-intersection2SEB"/>
</vehicle>
<vehicle id="229" depart="229" type="PoliceCar">
    <route edges="incoming2four-arm_LTL four-arm2bend bend2T-intersection_LTL T-intersection2SEB"/>
</vehicle>
<vehicle id="99" depart="99" type="PoliceCar">
    <route edges="WB2four-arm_LTL four-arm2NWB"/>
</vehicle>
<vehicle id="151" depart="151">
    <route edges="T-intersection2incoming_LTL incoming2EB"/>
</vehicle>
<vehicle id="118" depart="118">
    <route edges="incoming2four-arm_LTL four-arm2bend bend2T-intersection_LTL T-intersection2SEB"/>
</vehicle>
<vehicle id="186" depart="186">
    <route edges="EB2incoming incoming2four-arm_LTL four-arm2NWB"/>
</vehicle>
<vehicle id="70" depart="70">
    <route edges="NEB2incoming_LTL incoming2four-arm_LTL"/>
</vehicle>
<vehicle id="276" depart="276" type="FireTruck">
    <route edges="SEB2T-intersection T-intersection2bend bend2four-arm_LTL"/>
</vehicle>
<vehicle id="183" depart="183" type="FireTruck">
    <route edges="NWB2four-arm_LTL four-arm2incoming"/>
</vehicle>
<vehicle id="11" depart="11">
    <route edges="T-intersection2incoming_LTL incoming2four-arm_LTL four-arm2bend bend2T-intersection_LTL T-intersection2SEB"/>
</vehicle>
<vehicle id="237" depart="237" type="PoliceCar">
    <route edges="WB2four-arm_LTL four-arm2bend"/>
</vehicle>
<vehicle id="205" depart="205">
    <route edges="SEB2T-intersection T-intersection2bend"/>
</vehicle>
<vehicle id="15" depart="15" type="PoliceCar">
    <route edges="T-intersection2bend bend2four-arm_LTL four-arm2NWB"/>
</vehicle>
<vehicle id="257" depart="257">
    <route edges="incoming2four-arm_LTL four-arm2bend"/>
</vehicle>
<vehicle id="243" depart="243">
    <route edges="incoming2four-arm_LTL four-arm2bend bend2T-intersection_LTL T-intersection2incoming_LTL"/>
</vehicle>
<vehicle id="218" depart="218" type="PoliceCar">
    <route edges="WB2four-arm_LTL four-arm2bend bend2T-intersection_LTL"/>
</vehicle>
<vehicle id="78" depart="78" type="Ambulance">
    <route edges="bend2four-arm_LTL"/>
</vehicle>
<vehicle id="129" depart="129" type="Ambulance">
    <route edges="SEB2T-intersection T-intersection2incoming_LTL incoming2EB"/>
</vehicle>
<vehicle id="164" depart="164">
    <route edges="bend2T-intersection_LTL T-intersection2incoming_LTL incoming2four-arm_LTL four-arm2WB"/>
</vehicle>
<vehicle id="237" depart="237" type="FireTruck">
    <route edges="T-intersection2bend bend2four-arm_LTL four-arm2WB"/>
</vehicle>
<vehicle id="43" depart="43">
    <route edges="four-arm2bend bend2T-intersection_LTL T-intersection2incoming_LTL"/>
</vehicle>
<vehicle id="32" depart="32">
    <route edges="SEB2T-intersection T-intersection2incoming_LTL incoming2four-arm_LTL four-arm2WB"/>
</vehicle>
<vehicle id="243" depart="243">
    <route edges="four-arm2incoming"/>
</vehicle>
<vehicle id="38" depart="38" type="PoliceCar">
    <route edges="four-arm2incoming"/>
</vehicle>
<vehicle id="127" depart="127">
    <route edges="four-arm2bend bend2T-intersection_LTL T-intersection2incoming_LTL"/>
</vehicle>
<vehicle id="212" depart="212" type="PoliceCar">
    <route edges="SEB2T-intersection T-intersection2incoming_LTL incoming2four-arm_LTL"/>
</vehicle>
<vehicle id="111" depart="111" type="Ambulance">
    <route edges="incoming2four-arm_LTL four-arm2bend bend2T-intersection_LTL"/>
</vehicle>
<vehicle id="140" depart="140" type="PoliceCar">
    <route edges="SEB2T-intersection T-intersection2incoming_LTL incoming2four-arm_LTL four-arm2WB"/>
</vehicle>
<vehicle id="290" depart="290" type="FireTruck">
    <route edges="four-arm2incoming"/>
</vehicle>
<vehicle id="80" depart="80" type="PoliceCar">
    <route edges="SEB2T-intersection T-intersection2incoming_LTL incoming2four-arm_LTL four-arm2NWB"/>
</vehicle>
<vehicle id="137" depart="137" type="FireTruck">
    <route edges="four-arm2bend bend2T-intersection_LTL T-intersection2incoming_LTL incoming2EB"/>
</vehicle>
<vehicle id="172" depart="172" type="FireTruck">
    <route edges="NWB2four-arm_LTL four-arm2bend"/>
</vehicle>
<vehicle id="195" depart="195">
    <route edges="bend2T-intersection_LTL T-intersection2incoming_LTL incoming2four-arm_LTL"/>
</vehicle>
<vehicle id="121" depart="121" type="FireTruck">
    <route edges="bend2four-arm_LTL"/>
</vehicle>
<vehicle id="144" depart="144">
    <route edges="four-arm2incoming"/>
</vehicle>
<vehicle id="47" depart="47" type="Ambulance">
    <route edges="EB2incoming incoming2four-arm_LTL four-arm2bend bend2T-intersection_LTL"/>
</vehicle>
<vehicle id="272" depart="272">
    <route edges="SEB2T-intersection T-intersection2incoming_LTL incoming2four-arm_LTL four-arm2WB"/>
</vehicle>
<vehicle id="198" depart="198">
    <route edges="SEB2T-intersection T-intersection2incoming_LTL incoming2four-arm_LTL four-arm2NWB"/>
</vehicle>
<vehicle id="161" depart="161">
    <route edges="WB2four-arm_LTL four-arm2incoming"/>
</vehicle>
<vehicle id="287" depart="287" type="PoliceCar">
    <route edges="NEB2incoming_LTL incoming2four-arm_LTL four-arm2bend"/>
</vehicle>
<vehicle id="244" depart="244" type="PoliceCar">
    <route edges="EB2incoming incoming2four-arm_LTL"/>
</vehicle>
<vehicle id="251" depart="251" type="PoliceCar">
    <route edges="WB2four-arm_LTL four-arm2bend bend2T-intersection_LTL T-intersection2incoming_LTL"/>
</vehicle>
<vehicle id="67" depart="67" type="PoliceCar">
    <route edges="incoming2four-arm_LTL four-arm2NWB"/>
</vehicle>
<vehicle id="198" depart="198" type="Ambulance">
    <route edges="T-intersection2incoming_LTL incoming2four-arm_LTL four-arm2WB"/>
</vehicle>
<vehicle id="80" depart="80" type="Ambulance">
    <route edges="EB2incoming incoming2four-arm_LTL"/>
</vehicle>
<vehicle id="138" depart="138" type="FireTruck">
    <route edges="WB2four-arm_LTL four-arm2bend"/>
</vehicle>
<vehicle id="12" depart="12">
    <route edges="NEB2incoming_LTL incoming2four-arm_LTL four-arm2bend bend2T-intersection_LTL"/>
</vehicle>
<vehicle id="49" depart="49">
    <route edges="T-intersection2incoming_LTL incoming2four-arm_LTL four-arm2bend bend2T-intersection_LTL"/>
</vehicle>
<vehicle id="274" depart="274">
    <route edges="incoming2four-arm_LTL four-arm2bend bend2T-intersection_LTL T-intersection2incoming_LTL"/>
</vehicle>
<vehicle id="145" depart="145" type="FireTruck">
    <route edges="WB2four-arm_LTL four-arm2bend bend2T-intersection_LTL T-intersection2incoming_LTL incoming2four-arm_LTL four-arm2WB"/>
</vehicle>
<vehicle id="113" depart="113" type="Ambulance">
    <route edges="NWB2four-arm_LTL four-arm2bend bend2T-intersection_LTL T-intersection2incoming_LTL incoming2four-arm_LTL"/>
</vehicle>
<vehicle id="43" depart="43">
    <route edges="bend2T-intersection_LTL T-intersection2incoming_LTL incoming2four-arm_LTL four-arm2NWB"/>
</vehicle>
<vehicle id="271" depart="271" type="PoliceCar">
    <route edges="EB2incoming incoming2four-arm_LTL four-arm2bend bend2T-intersection_LTL"/>
</vehicle>
<vehicle id="161" depart="161">
    <route edges="WB2four-arm_LTL four-arm2bend bend2T-intersection_LTL T-intersection2incoming_LTL incoming2four-arm_LTL four-arm2WB"/>
</vehicle>
<vehicle id="40" depart="40">
    <route edges="incoming2four-arm_LTL four-arm2bend"/>
</vehicle>
<vehicle id="209" depart="209">
    <route edges="WB2four-arm_LTL four-arm2incoming incoming2EB"/>
</vehicle>
<vehicle id="1" depart="1" type="FireTruck">
    <route edges="bend2T-intersection_LTL T-intersection2incoming_LTL"/>
</vehicle>
<vehicle id="144" depart="144">
    <route edges="NEB2incoming_LTL incoming2four-arm_LTL"/>
</vehicle>
<vehicle id="89" depart="89" type="FireTruck">
    <route edges="four-arm2incoming incoming2EB"/>
</vehicle>
<vehicle id="110" depart="110">
    <route edges="WB2four-arm_LTL four-arm2bend bend2T-intersection_LTL"/>
</vehicle>
<vehicle id="26" depart="26" type="FireTruck">
    <route edges="four-arm2incoming"/>
</vehicle>
<vehicle id="136" depart="136" type="PoliceCar">
    <route edges="T-intersection2incoming_LTL incoming2four-arm_LTL four-arm2bend bend2T-intersection_LTL"/>
</vehicle>
<vehicle id="295" depart="295">
    <route edges="T-intersection2incoming_LTL incoming2four-arm_LTL four-arm2bend bend2T-intersection_LTL"/>
</vehicle>
<vehicle id="182" depart="182">
    <route edges="NWB2four-arm_LTL four-arm2bend"/>
</vehicle>
<vehicle id="189" depart="189" type="Ambulance">
    <route edges="NEB2incoming_LTL incoming2four-arm_LTL four-arm2bend bend2T-intersection_LTL T-intersection2incoming_LTL"/>
</vehicle>
<vehicle id="15" depart="15">
    <route edges="T-intersection2incoming_LTL"/>
</vehicle>
<vehicle id="54" depart="54" type="Ambulance">
    <route edges="SEB2T-intersection T-intersection2incoming_LTL incoming2four-arm_LTL four-arm2WB"/>
</vehicle>
<vehicle id="187" depart="187" type="Ambulance">
    <route edges="NEB2incoming_LTL incoming2four-arm_LTL four-arm2bend"/>
</vehicle>
<vehicle id="125" depart="125">
    <route edges="NWB2four-arm_LTL four-arm2bend bend2T-intersection_LTL T-intersection2incoming_LTL incoming2four-arm_LTL"/>
</vehicle>
</routes>
