<?xml version="1.0" encoding="UTF-8"?>

<routes xmlns:xsi="http://www.w3.org/2001/XMLSchema-instance" xsi:noNamespaceSchemaLocation="http://sumo.dlr.de/xsd/routes_file.xsd">

    <!-- Emergency Vehicle Type -->
    <vType id="FireTruck" vClass="emergency" guiShape="firebrigade"/>
    <vType id="Ambulance" vClass="emergency" guiShape="emergency"/>
    <vType id="PoliceCar" vClass="emergency" guiShape="police"/>
<vehicle id="32" depart="32" type="FireTruck">
    <route edges="NEB2incoming_LTL incoming2four-arm_LTL"/>
</vehicle>
<vehicle id="51" depart="51" type="FireTruck">
    <route edges="four-arm2incoming"/>
</vehicle>
<vehicle id="77" depart="77" type="Ambulance">
    <route edges="incoming2four-arm_LTL four-arm2bend bend2T-intersection_LTL T-intersection2incoming_LTL"/>
</vehicle>
<vehicle id="77" depart="77">
    <route edges="bend2T-intersection_LTL T-intersection2incoming_LTL incoming2EB"/>
</vehicle>
<vehicle id="272" depart="272" type="FireTruck">
    <route edges="T-intersection2incoming_LTL incoming2EB"/>
</vehicle>
<vehicle id="61" depart="61">
    <route edges="WB2four-arm_LTL four-arm2bend bend2T-intersection_LTL"/>
</vehicle>
<vehicle id="109" depart="109">
    <route edges="bend2T-intersection_LTL T-intersection2incoming_LTL incoming2four-arm_LTL four-arm2WB"/>
</vehicle>
<vehicle id="294" depart="294">
    <route edges="SEB2T-intersection T-intersection2incoming_LTL incoming2four-arm_LTL four-arm2NWB"/>
</vehicle>
<vehicle id="226" depart="226" type="Ambulance">
    <route edges="bend2T-intersection_LTL T-intersection2incoming_LTL incoming2four-arm_LTL four-arm2WB"/>
</vehicle>
<vehicle id="264" depart="264" type="PoliceCar">
    <route edges="NEB2incoming_LTL incoming2four-arm_LTL four-arm2bend bend2T-intersection_LTL T-intersection2SEB"/>
</vehicle>
<vehicle id="111" depart="111" type="Ambulance">
    <route edges="incoming2four-arm_LTL four-arm2NWB"/>
</vehicle>
<vehicle id="140" depart="140">
    <route edges="EB2incoming incoming2four-arm_LTL four-arm2NWB"/>
</vehicle>
<vehicle id="88" depart="88">
    <route edges="NEB2incoming_LTL incoming2EB"/>
</vehicle>
<vehicle id="299" depart="299">
    <route edges="WB2four-arm_LTL four-arm2incoming incoming2EB"/>
</vehicle>
<vehicle id="1" depart="1">
    <route edges="WB2four-arm_LTL four-arm2bend"/>
</vehicle>
<vehicle id="132" depart="132">
    <route edges="T-intersection2bend bend2four-arm_LTL four-arm2incoming"/>
</vehicle>
<vehicle id="163" depart="163" type="PoliceCar">
    <route edges="NEB2incoming_LTL incoming2four-arm_LTL four-arm2bend bend2T-intersection_LTL T-intersection2SEB"/>
</vehicle>
<vehicle id="159" depart="159" type="Ambulance">
    <route edges="SEB2T-intersection T-intersection2incoming_LTL incoming2EB"/>
</vehicle>
<vehicle id="67" depart="67">
    <route edges="SEB2T-intersection T-intersection2incoming_LTL incoming2four-arm_LTL four-arm2WB"/>
</vehicle>
<vehicle id="16" depart="16" type="PoliceCar">
    <route edges="T-intersection2incoming_LTL"/>
</vehicle>
<vehicle id="146" depart="146" type="FireTruck">
    <route edges="EB2incoming incoming2four-arm_LTL four-arm2WB"/>
</vehicle>
<vehicle id="5" depart="5" type="Ambulance">
    <route edges="incoming2four-arm_LTL four-arm2bend"/>
</vehicle>
<vehicle id="165" depart="165" type="Ambulance">
    <route edges="bend2T-intersection_LTL T-intersection2incoming_LTL incoming2four-arm_LTL four-arm2WB"/>
</vehicle>
<vehicle id="24" depart="24" type="PoliceCar">
    <route edges="WB2four-arm_LTL four-arm2bend"/>
</vehicle>
<vehicle id="149" depart="149">
    <route edges="NWB2four-arm_LTL four-arm2bend bend2T-intersection_LTL T-intersection2incoming_LTL incoming2four-arm_LTL"/>
</vehicle>
<vehicle id="166" depart="166">
    <route edges="T-intersection2incoming_LTL incoming2four-arm_LTL four-arm2bend bend2T-intersection_LTL"/>
</vehicle>
<vehicle id="151" depart="151">
    <route edges="WB2four-arm_LTL four-arm2bend bend2T-intersection_LTL T-intersection2incoming_LTL incoming2four-arm_LTL four-arm2WB"/>
</vehicle>
<vehicle id="251" depart="251" type="PoliceCar">
    <route edges="T-intersection2incoming_LTL incoming2four-arm_LTL four-arm2bend bend2T-intersection_LTL T-intersection2SEB"/>
</vehicle>
<vehicle id="155" depart="155" type="Ambulance">
    <route edges="four-arm2bend bend2T-intersection_LTL T-intersection2incoming_LTL incoming2four-arm_LTL four-arm2WB"/>
</vehicle>
<vehicle id="201" depart="201">
    <route edges="EB2incoming incoming2four-arm_LTL four-arm2bend bend2T-intersection_LTL T-intersection2SEB"/>
</vehicle>
<vehicle id="195" depart="195">
    <route edges="bend2T-intersection_LTL T-intersection2incoming_LTL incoming2four-arm_LTL"/>
</vehicle>
<vehicle id="117" depart="117">
    <route edges="SEB2T-intersection T-intersection2incoming_LTL incoming2four-arm_LTL four-arm2NWB"/>
</vehicle>
<vehicle id="69" depart="69" type="FireTruck">
    <route edges="bend2T-intersection_LTL T-intersection2incoming_LTL incoming2EB"/>
</vehicle>
<vehicle id="270" depart="270" type="PoliceCar">
    <route edges="incoming2four-arm_LTL four-arm2bend bend2T-intersection_LTL T-intersection2incoming_LTL"/>
</vehicle>
<vehicle id="295" depart="295">
    <route edges="SEB2T-intersection T-intersection2incoming_LTL incoming2four-arm_LTL four-arm2NWB"/>
</vehicle>
<vehicle id="145" depart="145" type="PoliceCar">
    <route edges="EB2incoming incoming2four-arm_LTL four-arm2WB"/>
</vehicle>
<vehicle id="197" depart="197">
    <route edges="bend2T-intersection_LTL T-intersection2incoming_LTL incoming2four-arm_LTL"/>
</vehicle>
<vehicle id="13" depart="13" type="FireTruck">
    <route edges="incoming2four-arm_LTL four-arm2bend"/>
</vehicle>
<vehicle id="127" depart="127">
    <route edges="four-arm2bend bend2T-intersection_LTL T-intersection2incoming_LTL incoming2four-arm_LTL four-arm2WB"/>
</vehicle>
<vehicle id="175" depart="175" type="FireTruck">
    <route edges="SEB2T-intersection T-intersection2bend"/>
</vehicle>
<vehicle id="159" depart="159" type="PoliceCar">
    <route edges="SEB2T-intersection T-intersection2bend bend2four-arm_LTL"/>
</vehicle>
<vehicle id="100" depart="100" type="Ambulance">
    <route edges="NWB2four-arm_LTL four-arm2bend bend2T-intersection_LTL T-intersection2incoming_LTL incoming2four-arm_LTL four-arm2NWB"/>
</vehicle>
<vehicle id="146" depart="146">
    <route edges="four-arm2bend bend2T-intersection_LTL T-intersection2incoming_LTL"/>
</vehicle>
<vehicle id="210" depart="210">
    <route edges="NWB2four-arm_LTL four-arm2bend bend2T-intersection_LTL T-intersection2incoming_LTL incoming2four-arm_LTL four-arm2NWB"/>
</vehicle>
<vehicle id="57" depart="57">
    <route edges="T-intersection2bend bend2four-arm_LTL four-arm2incoming incoming2EB"/>
</vehicle>
<vehicle id="67" depart="67" type="Ambulance">
    <route edges="bend2four-arm_LTL"/>
</vehicle>
<vehicle id="138" depart="138" type="Ambulance">
    <route edges="NEB2incoming_LTL incoming2four-arm_LTL four-arm2bend bend2T-intersection_LTL T-intersection2SEB"/>
</vehicle>
<vehicle id="268" depart="268" type="PoliceCar">
    <route edges="SEB2T-intersection T-intersection2incoming_LTL incoming2four-arm_LTL four-arm2NWB"/>
</vehicle>
<vehicle id="269" depart="269">
    <route edges="incoming2four-arm_LTL four-arm2bend"/>
</vehicle>
<vehicle id="238" depart="238" type="FireTruck">
    <route edges="T-intersection2incoming_LTL incoming2four-arm_LTL four-arm2WB"/>
</vehicle>
<vehicle id="62" depart="62">
    <route edges="T-intersection2incoming_LTL incoming2four-arm_LTL four-arm2WB"/>
</vehicle>
<vehicle id="224" depart="224">
    <route edges="bend2T-intersection_LTL T-intersection2incoming_LTL incoming2four-arm_LTL"/>
</vehicle>
<vehicle id="171" depart="171">
    <route edges="four-arm2incoming"/>
</vehicle>
<vehicle id="55" depart="55" type="FireTruck">
    <route edges="bend2four-arm_LTL four-arm2incoming incoming2EB"/>
</vehicle>
<vehicle id="265" depart="265">
    <route edges="SEB2T-intersection T-intersection2incoming_LTL incoming2four-arm_LTL"/>
</vehicle>
<vehicle id="75" depart="75">
    <route edges="incoming2four-arm_LTL four-arm2bend bend2T-intersection_LTL T-intersection2incoming_LTL"/>
</vehicle>
<vehicle id="143" depart="143" type="PoliceCar">
    <route edges="four-arm2bend bend2T-intersection_LTL T-intersection2incoming_LTL incoming2four-arm_LTL four-arm2WB"/>
</vehicle>
<vehicle id="35" depart="35">
    <route edges="SEB2T-intersection T-intersection2incoming_LTL incoming2four-arm_LTL four-arm2NWB"/>
</vehicle>
<vehicle id="199" depart="199">
    <route edges="NWB2four-arm_LTL four-arm2bend bend2T-intersection_LTL T-intersection2incoming_LTL incoming2four-arm_LTL"/>
</vehicle>
<vehicle id="294" depart="294" type="PoliceCar">
    <route edges="bend2T-intersection_LTL T-intersection2incoming_LTL incoming2four-arm_LTL four-arm2NWB"/>
</vehicle>
<vehicle id="20" depart="20" type="Ambulance">
    <route edges="NEB2incoming_LTL incoming2four-arm_LTL four-arm2bend"/>
</vehicle>
<vehicle id="240" depart="240" type="PoliceCar">
    <route edges="SEB2T-intersection T-intersection2incoming_LTL incoming2four-arm_LTL four-arm2bend bend2T-intersection_LTL"/>
</vehicle>
<vehicle id="292" depart="292">
    <route edges="NWB2four-arm_LTL four-arm2bend bend2T-intersection_LTL T-intersection2incoming_LTL incoming2four-arm_LTL"/>
</vehicle>
<vehicle id="10" depart="10" type="FireTruck">
    <route edges="WB2four-arm_LTL four-arm2NWB"/>
</vehicle>
<vehicle id="288" depart="288" type="Ambulance">
    <route edges="bend2T-intersection_LTL T-intersection2incoming_LTL incoming2EB"/>
</vehicle>
<vehicle id="234" depart="234">
    <route edges="NEB2incoming_LTL incoming2four-arm_LTL four-arm2bend bend2T-intersection_LTL"/>
</vehicle>
<vehicle id="201" depart="201" type="Ambulance">
    <route edges="four-arm2incoming"/>
</vehicle>
<vehicle id="9" depart="9">
    <route edges="EB2incoming incoming2four-arm_LTL four-arm2bend bend2T-intersection_LTL T-intersection2incoming_LTL incoming2EB"/>
</vehicle>
<vehicle id="257" depart="257" type="PoliceCar">
    <route edges="SEB2T-intersection T-intersection2incoming_LTL incoming2four-arm_LTL four-arm2NWB"/>
</vehicle>
<vehicle id="257" depart="257">
    <route edges="T-intersection2incoming_LTL incoming2four-arm_LTL four-arm2bend bend2T-intersection_LTL T-intersection2SEB"/>
</vehicle>
<vehicle id="250" depart="250" type="FireTruck">
    <route edges="four-arm2bend bend2T-intersection_LTL T-intersection2incoming_LTL incoming2four-arm_LTL four-arm2NWB"/>
</vehicle>
<vehicle id="282" depart="282" type="Ambulance">
    <route edges="T-intersection2bend bend2four-arm_LTL four-arm2NWB"/>
</vehicle>
<vehicle id="145" depart="145" type="Ambulance">
    <route edges="T-intersection2incoming_LTL incoming2four-arm_LTL four-arm2WB"/>
</vehicle>
<vehicle id="20" depart="20" type="PoliceCar">
    <route edges="incoming2four-arm_LTL four-arm2bend"/>
</vehicle>
<vehicle id="148" depart="148" type="PoliceCar">
    <route edges="WB2four-arm_LTL four-arm2incoming"/>
</vehicle>
<vehicle id="276" depart="276" type="Ambulance">
    <route edges="NWB2four-arm_LTL four-arm2bend bend2T-intersection_LTL T-intersection2incoming_LTL incoming2four-arm_LTL"/>
</vehicle>
<vehicle id="269" depart="269">
    <route edges="EB2incoming incoming2four-arm_LTL four-arm2WB"/>
</vehicle>
<vehicle id="199" depart="199">
    <route edges="WB2four-arm_LTL four-arm2bend bend2T-intersection_LTL"/>
</vehicle>
<vehicle id="29" depart="29" type="FireTruck">
    <route edges="EB2incoming incoming2four-arm_LTL"/>
</vehicle>
<vehicle id="11" depart="11" type="PoliceCar">
    <route edges="SEB2T-intersection T-intersection2incoming_LTL incoming2four-arm_LTL"/>
</vehicle>
<vehicle id="134" depart="134">
    <route edges="EB2incoming incoming2four-arm_LTL four-arm2NWB"/>
</vehicle>
<vehicle id="65" depart="65">
    <route edges="SEB2T-intersection T-intersection2incoming_LTL incoming2four-arm_LTL four-arm2NWB"/>
</vehicle>
<vehicle id="269" depart="269" type="FireTruck">
    <route edges="incoming2four-arm_LTL four-arm2bend bend2T-intersection_LTL T-intersection2incoming_LTL incoming2EB"/>
</vehicle>
<vehicle id="238" depart="238">
    <route edges="EB2incoming incoming2four-arm_LTL four-arm2bend bend2T-intersection_LTL T-intersection2SEB"/>
</vehicle>
<vehicle id="6" depart="6">
    <route edges="bend2four-arm_LTL four-arm2incoming incoming2EB"/>
</vehicle>
<vehicle id="24" depart="24" type="Ambulance">
    <route edges="T-intersection2bend bend2four-arm_LTL"/>
</vehicle>
<vehicle id="65" depart="65">
    <route edges="NWB2four-arm_LTL four-arm2bend bend2T-intersection_LTL T-intersection2incoming_LTL incoming2four-arm_LTL"/>
</vehicle>
<vehicle id="132" depart="132" type="Ambulance">
    <route edges="bend2T-intersection_LTL T-intersection2incoming_LTL incoming2EB"/>
</vehicle>
<vehicle id="18" depart="18" type="FireTruck">
    <route edges="NEB2incoming_LTL incoming2four-arm_LTL"/>
</vehicle>
<vehicle id="177" depart="177">
    <route edges="NWB2four-arm_LTL four-arm2bend bend2T-intersection_LTL T-intersection2incoming_LTL incoming2four-arm_LTL four-arm2NWB"/>
</vehicle>
<vehicle id="94" depart="94">
    <route edges="SEB2T-intersection T-intersection2bend"/>
</vehicle>
<vehicle id="264" depart="264">
    <route edges="WB2four-arm_LTL four-arm2bend bend2T-intersection_LTL T-intersection2SEB"/>
</vehicle>
<vehicle id="64" depart="64">
    <route edges="four-arm2bend bend2T-intersection_LTL T-intersection2SEB"/>
</vehicle>
<vehicle id="250" depart="250">
    <route edges="incoming2four-arm_LTL four-arm2bend bend2T-intersection_LTL"/>
</vehicle>
<vehicle id="132" depart="132" type="FireTruck">
    <route edges="EB2incoming incoming2four-arm_LTL four-arm2bend bend2T-intersection_LTL"/>
</vehicle>
<vehicle id="296" depart="296">
    <route edges="T-intersection2incoming_LTL incoming2four-arm_LTL four-arm2WB"/>
</vehicle>
<vehicle id="20" depart="20" type="FireTruck">
    <route edges="NWB2four-arm_LTL four-arm2bend"/>
</vehicle>
<vehicle id="203" depart="203">
    <route edges="SEB2T-intersection T-intersection2incoming_LTL incoming2four-arm_LTL"/>
</vehicle>
<vehicle id="92" depart="92" type="PoliceCar">
    <route edges="bend2T-intersection_LTL T-intersection2incoming_LTL incoming2four-arm_LTL four-arm2NWB"/>
</vehicle>
<vehicle id="87" depart="87" type="PoliceCar">
    <route edges="SEB2T-intersection T-intersection2incoming_LTL incoming2four-arm_LTL four-arm2bend bend2T-intersection_LTL"/>
</vehicle>
<vehicle id="48" depart="48" type="Ambulance">
    <route edges="NWB2four-arm_LTL four-arm2incoming"/>
</vehicle>
<vehicle id="115" depart="115">
    <route edges="NWB2four-arm_LTL four-arm2bend bend2T-intersection_LTL T-intersection2incoming_LTL incoming2four-arm_LTL"/>
</vehicle>
<vehicle id="73" depart="73" type="Ambulance">
    <route edges="incoming2four-arm_LTL four-arm2bend bend2T-intersection_LTL"/>
</vehicle>
<vehicle id="265" depart="265">
    <route edges="WB2four-arm_LTL four-arm2bend bend2T-intersection_LTL T-intersection2incoming_LTL"/>
</vehicle>
<vehicle id="38" depart="38" type="PoliceCar">
    <route edges="T-intersection2incoming_LTL incoming2four-arm_LTL four-arm2bend"/>
</vehicle>
<vehicle id="194" depart="194">
    <route edges="NEB2incoming_LTL incoming2EB"/>
</vehicle>
<vehicle id="35" depart="35" type="FireTruck">
    <route edges="NWB2four-arm_LTL four-arm2bend"/>
</vehicle>
<vehicle id="177" depart="177">
    <route edges="T-intersection2incoming_LTL incoming2four-arm_LTL four-arm2bend bend2T-intersection_LTL"/>
</vehicle>
<vehicle id="148" depart="148">
    <route edges="four-arm2bend bend2T-intersection_LTL T-intersection2incoming_LTL incoming2EB"/>
</vehicle>
<vehicle id="20" depart="20" type="Ambulance">
    <route edges="NEB2incoming_LTL incoming2four-arm_LTL"/>
</vehicle>
<vehicle id="120" depart="120">
    <route edges="WB2four-arm_LTL four-arm2bend bend2T-intersection_LTL"/>
</vehicle>
<vehicle id="15" depart="15">
    <route edges="T-intersection2incoming_LTL"/>
</vehicle>
<vehicle id="32" depart="32" type="FireTruck">
    <route edges="EB2incoming incoming2four-arm_LTL four-arm2bend"/>
</vehicle>
<vehicle id="127" depart="127">
    <route edges="NWB2four-arm_LTL four-arm2incoming"/>
</vehicle>
<vehicle id="58" depart="58">
    <route edges="incoming2four-arm_LTL four-arm2bend"/>
</vehicle>
<vehicle id="270" depart="270" type="Ambulance">
    <route edges="bend2four-arm_LTL four-arm2incoming"/>
</vehicle>
<vehicle id="200" depart="200">
    <route edges="T-intersection2incoming_LTL incoming2four-arm_LTL four-arm2bend bend2T-intersection_LTL T-intersection2SEB"/>
</vehicle>
<vehicle id="211" depart="211">
    <route edges="bend2four-arm_LTL four-arm2incoming"/>
</vehicle>
<vehicle id="41" depart="41">
    <route edges="four-arm2bend bend2T-intersection_LTL T-intersection2incoming_LTL incoming2four-arm_LTL four-arm2WB"/>
</vehicle>
<vehicle id="277" depart="277" type="FireTruck">
    <route edges="NEB2incoming_LTL incoming2four-arm_LTL four-arm2NWB"/>
</vehicle>
<vehicle id="174" depart="174">
    <route edges="NWB2four-arm_LTL four-arm2bend bend2T-intersection_LTL T-intersection2incoming_LTL incoming2four-arm_LTL"/>
</vehicle>
<vehicle id="239" depart="239" type="Ambulance">
    <route edges="incoming2four-arm_LTL four-arm2bend bend2T-intersection_LTL T-intersection2incoming_LTL"/>
</vehicle>
<vehicle id="37" depart="37" type="Ambulance">
    <route edges="bend2T-intersection_LTL T-intersection2incoming_LTL incoming2four-arm_LTL four-arm2NWB"/>
</vehicle>
<vehicle id="250" depart="250" type="FireTruck">
    <route edges="SEB2T-intersection T-intersection2bend bend2four-arm_LTL"/>
</vehicle>
<vehicle id="300" depart="300" type="Ambulance">
    <route edges="incoming2four-arm_LTL four-arm2NWB"/>
</vehicle>
<vehicle id="193" depart="193">
    <route edges="SEB2T-intersection T-intersection2incoming_LTL incoming2four-arm_LTL four-arm2WB"/>
</vehicle>
<vehicle id="89" depart="89" type="PoliceCar">
    <route edges="SEB2T-intersection T-intersection2incoming_LTL incoming2four-arm_LTL"/>
</vehicle>
<vehicle id="242" depart="242" type="FireTruck">
    <route edges="T-intersection2incoming_LTL incoming2four-arm_LTL four-arm2WB"/>
</vehicle>
<vehicle id="91" depart="91" type="FireTruck">
    <route edges="incoming2four-arm_LTL four-arm2NWB"/>
</vehicle>
<vehicle id="96" depart="96">
    <route edges="four-arm2bend bend2T-intersection_LTL T-intersection2incoming_LTL"/>
</vehicle>
<vehicle id="298" depart="298">
    <route edges="SEB2T-intersection T-intersection2incoming_LTL incoming2EB"/>
</vehicle>
<vehicle id="67" depart="67">
    <route edges="T-intersection2bend bend2four-arm_LTL four-arm2NWB"/>
</vehicle>
<vehicle id="70" depart="70">
    <route edges="SEB2T-intersection T-intersection2bend"/>
</vehicle>
<vehicle id="190" depart="190" type="FireTruck">
    <route edges="T-intersection2bend bend2four-arm_LTL four-arm2incoming"/>
</vehicle>
<vehicle id="94" depart="94" type="FireTruck">
    <route edges="T-intersection2bend bend2four-arm_LTL four-arm2NWB"/>
</vehicle>
<vehicle id="68" depart="68">
    <route edges="incoming2four-arm_LTL four-arm2bend"/>
</vehicle>
<vehicle id="17" depart="17" type="PoliceCar">
    <route edges="four-arm2incoming"/>
</vehicle>
<vehicle id="294" depart="294" type="FireTruck">
    <route edges="SEB2T-intersection T-intersection2bend bend2four-arm_LTL"/>
</vehicle>
<vehicle id="259" depart="259" type="FireTruck">
    <route edges="SEB2T-intersection T-intersection2incoming_LTL incoming2four-arm_LTL four-arm2bend bend2T-intersection_LTL T-intersection2SEB"/>
</vehicle>
<vehicle id="243" depart="243">
    <route edges="SEB2T-intersection T-intersection2incoming_LTL incoming2four-arm_LTL four-arm2NWB"/>
</vehicle>
<vehicle id="8" depart="8" type="FireTruck">
    <route edges="EB2incoming incoming2four-arm_LTL four-arm2bend"/>
</vehicle>
<vehicle id="147" depart="147" type="Ambulance">
    <route edges="bend2T-intersection_LTL T-intersection2incoming_LTL incoming2EB"/>
</vehicle>
<vehicle id="160" depart="160">
    <route edges="bend2four-arm_LTL four-arm2incoming"/>
</vehicle>
<vehicle id="279" depart="279" type="Ambulance">
    <route edges="NWB2four-arm_LTL four-arm2WB"/>
</vehicle>
<vehicle id="255" depart="255" type="FireTruck">
    <route edges="NWB2four-arm_LTL four-arm2incoming"/>
</vehicle>
<vehicle id="196" depart="196">
    <route edges="SEB2T-intersection T-intersection2bend bend2four-arm_LTL four-arm2incoming"/>
</vehicle>
<vehicle id="226" depart="226" type="FireTruck">
    <route edges="T-intersection2incoming_LTL incoming2four-arm_LTL four-arm2bend bend2T-intersection_LTL"/>
</vehicle>
<vehicle id="258" depart="258">
    <route edges="bend2four-arm_LTL four-arm2WB"/>
</vehicle>
<vehicle id="158" depart="158">
    <route edges="WB2four-arm_LTL four-arm2bend"/>
</vehicle>
<vehicle id="145" depart="145" type="PoliceCar">
    <route edges="incoming2four-arm_LTL four-arm2bend"/>
</vehicle>
<vehicle id="226" depart="226">
    <route edges="SEB2T-intersection T-intersection2incoming_LTL incoming2four-arm_LTL four-arm2bend"/>
</vehicle>
<vehicle id="280" depart="280">
    <route edges="incoming2four-arm_LTL four-arm2bend bend2T-intersection_LTL"/>
</vehicle>
<vehicle id="270" depart="270">
    <route edges="T-intersection2incoming_LTL incoming2EB"/>
</vehicle>
<vehicle id="115" depart="115" type="PoliceCar">
    <route edges="NWB2four-arm_LTL four-arm2incoming"/>
</vehicle>
<vehicle id="66" depart="66">
    <route edges="NEB2incoming_LTL incoming2four-arm_LTL four-arm2bend"/>
</vehicle>
</routes>
