<?xml version="1.0" encoding="UTF-8"?>

<routes xmlns:xsi="http://www.w3.org/2001/XMLSchema-instance" xsi:noNamespaceSchemaLocation="http://sumo.dlr.de/xsd/routes_file.xsd">

    <!-- Emergency Vehicle Type -->
    <vType id="FireTruck" vClass="emergency" guiShape="firebrigade"/>
    <vType id="Ambulance" vClass="emergency" guiShape="emergency"/>
    <vType id="PoliceCar" vClass="emergency" guiShape="police"/>
<vehicle id="44" depart="44">
    <route edges="SEB2T-intersection T-intersection2incoming_LTL incoming2four-arm_LTL four-arm2NWB"/>
</vehicle>
<vehicle id="198" depart="198" type="FireTruck">
    <route edges="four-arm2incoming incoming2EB"/>
</vehicle>
<vehicle id="276" depart="276">
    <route edges="WB2four-arm_LTL four-arm2incoming incoming2EB"/>
</vehicle>
<vehicle id="208" depart="208" type="PoliceCar">
    <route edges="WB2four-arm_LTL four-arm2bend bend2T-intersection_LTL T-intersection2incoming_LTL"/>
</vehicle>
<vehicle id="78" depart="78">
    <route edges="bend2T-intersection_LTL T-intersection2incoming_LTL incoming2four-arm_LTL"/>
</vehicle>
<vehicle id="93" depart="93" type="FireTruck">
    <route edges="NWB2four-arm_LTL four-arm2bend bend2T-intersection_LTL T-intersection2incoming_LTL incoming2four-arm_LTL"/>
</vehicle>
<vehicle id="207" depart="207" type="PoliceCar">
    <route edges="NEB2incoming_LTL incoming2four-arm_LTL four-arm2bend bend2T-intersection_LTL T-intersection2SEB"/>
</vehicle>
<vehicle id="182" depart="182">
    <route edges="WB2four-arm_LTL four-arm2bend bend2T-intersection_LTL T-intersection2incoming_LTL incoming2four-arm_LTL four-arm2WB"/>
</vehicle>
<vehicle id="189" depart="189" type="FireTruck">
    <route edges="NWB2four-arm_LTL four-arm2bend bend2T-intersection_LTL T-intersection2SEB"/>
</vehicle>
<vehicle id="70" depart="70">
    <route edges="bend2T-intersection_LTL T-intersection2incoming_LTL incoming2four-arm_LTL four-arm2NWB"/>
</vehicle>
<vehicle id="112" depart="112">
    <route edges="WB2four-arm_LTL four-arm2NWB"/>
</vehicle>
<vehicle id="66" depart="66">
    <route edges="T-intersection2incoming_LTL incoming2four-arm_LTL four-arm2WB"/>
</vehicle>
<vehicle id="231" depart="231">
    <route edges="bend2T-intersection_LTL T-intersection2incoming_LTL incoming2EB"/>
</vehicle>
<vehicle id="241" depart="241" type="Ambulance">
    <route edges="T-intersection2incoming_LTL incoming2EB"/>
</vehicle>
<vehicle id="128" depart="128" type="Ambulance">
    <route edges="four-arm2bend bend2T-intersection_LTL T-intersection2incoming_LTL incoming2four-arm_LTL"/>
</vehicle>
<vehicle id="71" depart="71" type="FireTruck">
    <route edges="SEB2T-intersection T-intersection2bend"/>
</vehicle>
<vehicle id="273" depart="273" type="PoliceCar">
    <route edges="SEB2T-intersection T-intersection2incoming_LTL"/>
</vehicle>
<vehicle id="227" depart="227">
    <route edges="four-arm2bend bend2T-intersection_LTL T-intersection2incoming_LTL incoming2four-arm_LTL four-arm2WB"/>
</vehicle>
<vehicle id="8" depart="8" type="FireTruck">
    <route edges="bend2four-arm_LTL four-arm2WB"/>
</vehicle>
<vehicle id="125" depart="125">
    <route edges="WB2four-arm_LTL four-arm2bend bend2T-intersection_LTL T-intersection2incoming_LTL"/>
</vehicle>
<vehicle id="293" depart="293">
    <route edges="SEB2T-intersection T-intersection2incoming_LTL incoming2four-arm_LTL"/>
</vehicle>
<vehicle id="94" depart="94">
    <route edges="four-arm2bend bend2T-intersection_LTL T-intersection2incoming_LTL"/>
</vehicle>
<vehicle id="33" depart="33">
    <route edges="NEB2incoming_LTL incoming2four-arm_LTL four-arm2bend"/>
</vehicle>
<vehicle id="171" depart="171">
    <route edges="four-arm2bend bend2T-intersection_LTL T-intersection2incoming_LTL incoming2EB"/>
</vehicle>
<vehicle id="156" depart="156" type="Ambulance">
    <route edges="SEB2T-intersection T-intersection2incoming_LTL incoming2four-arm_LTL four-arm2bend bend2T-intersection_LTL"/>
</vehicle>
<vehicle id="157" depart="157" type="PoliceCar">
    <route edges="EB2incoming incoming2four-arm_LTL four-arm2bend"/>
</vehicle>
<vehicle id="75" depart="75">
    <route edges="EB2incoming incoming2four-arm_LTL"/>
</vehicle>
<vehicle id="299" depart="299">
    <route edges="WB2four-arm_LTL four-arm2bend bend2T-intersection_LTL T-intersection2incoming_LTL incoming2four-arm_LTL four-arm2WB"/>
</vehicle>
<vehicle id="149" depart="149">
    <route edges="SEB2T-intersection T-intersection2bend bend2four-arm_LTL"/>
</vehicle>
<vehicle id="226" depart="226">
    <route edges="EB2incoming incoming2four-arm_LTL four-arm2WB"/>
</vehicle>
<vehicle id="202" depart="202">
    <route edges="SEB2T-intersection T-intersection2incoming_LTL incoming2four-arm_LTL four-arm2bend bend2T-intersection_LTL"/>
</vehicle>
<vehicle id="166" depart="166">
    <route edges="four-arm2bend bend2T-intersection_LTL T-intersection2incoming_LTL"/>
</vehicle>
<vehicle id="119" depart="119" type="FireTruck">
    <route edges="EB2incoming incoming2four-arm_LTL"/>
</vehicle>
<vehicle id="240" depart="240">
    <route edges="WB2four-arm_LTL four-arm2bend bend2T-intersection_LTL T-intersection2incoming_LTL incoming2four-arm_LTL four-arm2WB"/>
</vehicle>
<vehicle id="159" depart="159" type="FireTruck">
    <route edges="T-intersection2bend bend2four-arm_LTL four-arm2incoming incoming2EB"/>
</vehicle>
<vehicle id="232" depart="232" type="Ambulance">
    <route edges="NEB2incoming_LTL incoming2four-arm_LTL four-arm2bend bend2T-intersection_LTL"/>
</vehicle>
<vehicle id="24" depart="24" type="Ambulance">
    <route edges="four-arm2bend bend2T-intersection_LTL T-intersection2incoming_LTL"/>
</vehicle>
<vehicle id="56" depart="56" type="PoliceCar">
    <route edges="NWB2four-arm_LTL four-arm2bend bend2T-intersection_LTL T-intersection2SEB"/>
</vehicle>
<vehicle id="134" depart="134">
    <route edges="four-arm2bend bend2T-intersection_LTL T-intersection2incoming_LTL"/>
</vehicle>
<vehicle id="7" depart="7" type="Ambulance">
    <route edges="incoming2four-arm_LTL four-arm2bend"/>
</vehicle>
<vehicle id="243" depart="243">
    <route edges="incoming2four-arm_LTL four-arm2NWB"/>
</vehicle>
<vehicle id="245" depart="245">
    <route edges="SEB2T-intersection T-intersection2bend"/>
</vehicle>
<vehicle id="19" depart="19">
    <route edges="SEB2T-intersection T-intersection2incoming_LTL incoming2four-arm_LTL"/>
</vehicle>
<vehicle id="197" depart="197" type="FireTruck">
    <route edges="SEB2T-intersection T-intersection2incoming_LTL incoming2four-arm_LTL four-arm2bend bend2T-intersection_LTL T-intersection2SEB"/>
</vehicle>
<vehicle id="131" depart="131">
    <route edges="SEB2T-intersection T-intersection2incoming_LTL incoming2four-arm_LTL four-arm2WB"/>
</vehicle>
<vehicle id="176" depart="176" type="Ambulance">
    <route edges="T-intersection2incoming_LTL incoming2four-arm_LTL four-arm2WB"/>
</vehicle>
<vehicle id="225" depart="225">
    <route edges="SEB2T-intersection T-intersection2incoming_LTL incoming2four-arm_LTL four-arm2NWB"/>
</vehicle>
<vehicle id="267" depart="267">
    <route edges="NWB2four-arm_LTL four-arm2incoming"/>
</vehicle>
<vehicle id="191" depart="191" type="FireTruck">
    <route edges="four-arm2bend bend2T-intersection_LTL T-intersection2incoming_LTL incoming2four-arm_LTL four-arm2WB"/>
</vehicle>
<vehicle id="268" depart="268">
    <route edges="NEB2incoming_LTL incoming2four-arm_LTL four-arm2bend bend2T-intersection_LTL T-intersection2SEB"/>
</vehicle>
<vehicle id="41" depart="41" type="Ambulance">
    <route edges="SEB2T-intersection T-intersection2incoming_LTL incoming2four-arm_LTL four-arm2WB"/>
</vehicle>
<vehicle id="233" depart="233">
    <route edges="SEB2T-intersection T-intersection2bend bend2four-arm_LTL four-arm2incoming"/>
</vehicle>
<vehicle id="48" depart="48">
    <route edges="NEB2incoming_LTL incoming2four-arm_LTL"/>
</vehicle>
<vehicle id="107" depart="107" type="FireTruck">
    <route edges="SEB2T-intersection T-intersection2incoming_LTL incoming2four-arm_LTL four-arm2WB"/>
</vehicle>
<vehicle id="239" depart="239" type="Ambulance">
    <route edges="EB2incoming incoming2four-arm_LTL four-arm2bend bend2T-intersection_LTL T-intersection2incoming_LTL incoming2EB"/>
</vehicle>
<vehicle id="217" depart="217" type="PoliceCar">
    <route edges="incoming2four-arm_LTL four-arm2NWB"/>
</vehicle>
<vehicle id="6" depart="6">
    <route edges="incoming2four-arm_LTL four-arm2bend bend2T-intersection_LTL T-intersection2SEB"/>
</vehicle>
<vehicle id="215" depart="215" type="Ambulance">
    <route edges="NEB2incoming_LTL incoming2four-arm_LTL"/>
</vehicle>
<vehicle id="242" depart="242">
    <route edges="SEB2T-intersection T-intersection2incoming_LTL incoming2four-arm_LTL four-arm2WB"/>
</vehicle>
<vehicle id="101" depart="101" type="Ambulance">
    <route edges="SEB2T-intersection T-intersection2incoming_LTL incoming2four-arm_LTL four-arm2bend bend2T-intersection_LTL T-intersection2SEB"/>
</vehicle>
<vehicle id="294" depart="294">
    <route edges="four-arm2bend bend2T-intersection_LTL T-intersection2incoming_LTL"/>
</vehicle>
<vehicle id="59" depart="59" type="PoliceCar">
    <route edges="incoming2four-arm_LTL four-arm2NWB"/>
</vehicle>
<vehicle id="10" depart="10" type="Ambulance">
    <route edges="four-arm2bend bend2T-intersection_LTL T-intersection2SEB"/>
</vehicle>
<vehicle id="105" depart="105" type="FireTruck">
    <route edges="four-arm2incoming incoming2EB"/>
</vehicle>
<vehicle id="213" depart="213" type="FireTruck">
    <route edges="SEB2T-intersection T-intersection2incoming_LTL incoming2EB"/>
</vehicle>
<vehicle id="91" depart="91" type="PoliceCar">
    <route edges="NEB2incoming_LTL incoming2four-arm_LTL"/>
</vehicle>
<vehicle id="282" depart="282">
    <route edges="bend2T-intersection_LTL T-intersection2incoming_LTL incoming2four-arm_LTL four-arm2WB"/>
</vehicle>
<vehicle id="55" depart="55">
    <route edges="EB2incoming incoming2four-arm_LTL four-arm2bend bend2T-intersection_LTL T-intersection2incoming_LTL incoming2EB"/>
</vehicle>
<vehicle id="185" depart="185">
    <route edges="T-intersection2incoming_LTL incoming2four-arm_LTL four-arm2NWB"/>
</vehicle>
<vehicle id="0" depart="0">
    <route edges="SEB2T-intersection T-intersection2incoming_LTL incoming2four-arm_LTL four-arm2WB"/>
</vehicle>
<vehicle id="246" depart="246">
    <route edges="T-intersection2bend bend2four-arm_LTL four-arm2WB"/>
</vehicle>
<vehicle id="244" depart="244">
    <route edges="SEB2T-intersection T-intersection2bend bend2four-arm_LTL"/>
</vehicle>
<vehicle id="170" depart="170" type="PoliceCar">
    <route edges="SEB2T-intersection T-intersection2incoming_LTL incoming2four-arm_LTL four-arm2WB"/>
</vehicle>
<vehicle id="287" depart="287">
    <route edges="NWB2four-arm_LTL four-arm2bend bend2T-intersection_LTL T-intersection2incoming_LTL"/>
</vehicle>
<vehicle id="76" depart="76">
    <route edges="WB2four-arm_LTL four-arm2bend bend2T-intersection_LTL"/>
</vehicle>
<vehicle id="237" depart="237">
    <route edges="four-arm2bend bend2T-intersection_LTL T-intersection2incoming_LTL"/>
</vehicle>
<vehicle id="162" depart="162">
    <route edges="T-intersection2bend bend2four-arm_LTL"/>
</vehicle>
<vehicle id="298" depart="298" type="FireTruck">
    <route edges="T-intersection2bend bend2four-arm_LTL four-arm2NWB"/>
</vehicle>
<vehicle id="143" depart="143">
    <route edges="NWB2four-arm_LTL four-arm2bend bend2T-intersection_LTL T-intersection2incoming_LTL incoming2four-arm_LTL"/>
</vehicle>
<vehicle id="292" depart="292" type="FireTruck">
    <route edges="SEB2T-intersection T-intersection2bend bend2four-arm_LTL"/>
</vehicle>
<vehicle id="180" depart="180" type="FireTruck">
    <route edges="EB2incoming incoming2four-arm_LTL four-arm2NWB"/>
</vehicle>
<vehicle id="253" depart="253" type="Ambulance">
    <route edges="bend2T-intersection_LTL T-intersection2incoming_LTL incoming2four-arm_LTL four-arm2bend"/>
</vehicle>
<vehicle id="138" depart="138">
    <route edges="NEB2incoming_LTL incoming2four-arm_LTL four-arm2bend bend2T-intersection_LTL T-intersection2SEB"/>
</vehicle>
<vehicle id="258" depart="258">
    <route edges="NEB2incoming_LTL incoming2four-arm_LTL four-arm2NWB"/>
</vehicle>
<vehicle id="272" depart="272" type="Ambulance">
    <route edges="EB2incoming incoming2four-arm_LTL four-arm2bend bend2T-intersection_LTL T-intersection2SEB"/>
</vehicle>
<vehicle id="98" depart="98" type="PoliceCar">
    <route edges="four-arm2bend bend2T-intersection_LTL T-intersection2incoming_LTL"/>
</vehicle>
<vehicle id="187" depart="187">
    <route edges="T-intersection2bend bend2four-arm_LTL four-arm2incoming"/>
</vehicle>
<vehicle id="122" depart="122">
    <route edges="NWB2four-arm_LTL four-arm2bend bend2T-intersection_LTL T-intersection2incoming_LTL"/>
</vehicle>
<vehicle id="108" depart="108" type="FireTruck">
    <route edges="NWB2four-arm_LTL four-arm2WB"/>
</vehicle>
<vehicle id="265" depart="265">
    <route edges="bend2T-intersection_LTL T-intersection2incoming_LTL incoming2EB"/>
</vehicle>
<vehicle id="223" depart="223" type="FireTruck">
    <route edges="SEB2T-intersection T-intersection2incoming_LTL incoming2four-arm_LTL four-arm2WB"/>
</vehicle>
<vehicle id="147" depart="147">
    <route edges="T-intersection2incoming_LTL incoming2EB"/>
</vehicle>
<vehicle id="285" depart="285" type="PoliceCar">
    <route edges="SEB2T-intersection T-intersection2incoming_LTL incoming2four-arm_LTL"/>
</vehicle>
<vehicle id="118" depart="118" type="Ambulance">
    <route edges="bend2four-arm_LTL four-arm2incoming"/>
</vehicle>
<vehicle id="178" depart="178" type="FireTruck">
    <route edges="T-intersection2incoming_LTL incoming2four-arm_LTL"/>
</vehicle>
<vehicle id="60" depart="60">
    <route edges="SEB2T-intersection T-intersection2incoming_LTL incoming2four-arm_LTL four-arm2WB"/>
</vehicle>
<vehicle id="54" depart="54" type="PoliceCar">
    <route edges="incoming2four-arm_LTL four-arm2bend bend2T-intersection_LTL T-intersection2incoming_LTL"/>
</vehicle>
<vehicle id="132" depart="132">
    <route edges="NEB2incoming_LTL incoming2four-arm_LTL"/>
</vehicle>
<vehicle id="173" depart="173">
    <route edges="incoming2four-arm_LTL four-arm2bend bend2T-intersection_LTL T-intersection2incoming_LTL"/>
</vehicle>
<vehicle id="42" depart="42" type="FireTruck">
    <route edges="SEB2T-intersection T-intersection2incoming_LTL incoming2four-arm_LTL four-arm2bend bend2T-intersection_LTL T-intersection2SEB"/>
</vehicle>
<vehicle id="260" depart="260">
    <route edges="NWB2four-arm_LTL four-arm2incoming"/>
</vehicle>
<vehicle id="65" depart="65" type="Ambulance">
    <route edges="WB2four-arm_LTL four-arm2bend bend2T-intersection_LTL T-intersection2incoming_LTL"/>
</vehicle>
<vehicle id="291" depart="291">
    <route edges="T-intersection2bend bend2four-arm_LTL four-arm2WB"/>
</vehicle>
<vehicle id="120" depart="120">
    <route edges="bend2T-intersection_LTL T-intersection2incoming_LTL incoming2four-arm_LTL four-arm2WB"/>
</vehicle>
<vehicle id="228" depart="228">
    <route edges="SEB2T-intersection T-intersection2incoming_LTL incoming2four-arm_LTL"/>
</vehicle>
<vehicle id="148" depart="148" type="PoliceCar">
    <route edges="T-intersection2bend bend2four-arm_LTL four-arm2incoming"/>
</vehicle>
<vehicle id="133" depart="133" type="PoliceCar">
    <route edges="WB2four-arm_LTL four-arm2bend bend2T-intersection_LTL"/>
</vehicle>
<vehicle id="72" depart="72">
    <route edges="T-intersection2bend bend2four-arm_LTL four-arm2WB"/>
</vehicle>
<vehicle id="168" depart="168" type="FireTruck">
    <route edges="four-arm2incoming"/>
</vehicle>
<vehicle id="34" depart="34" type="PoliceCar">
    <route edges="WB2four-arm_LTL four-arm2bend bend2T-intersection_LTL"/>
</vehicle>
<vehicle id="150" depart="150" type="FireTruck">
    <route edges="WB2four-arm_LTL four-arm2NWB"/>
</vehicle>
<vehicle id="297" depart="297" type="FireTruck">
    <route edges="WB2four-arm_LTL four-arm2incoming incoming2EB"/>
</vehicle>
<vehicle id="177" depart="177" type="PoliceCar">
    <route edges="bend2T-intersection_LTL T-intersection2incoming_LTL incoming2four-arm_LTL four-arm2NWB"/>
</vehicle>
<vehicle id="79" depart="79">
    <route edges="SEB2T-intersection T-intersection2incoming_LTL incoming2four-arm_LTL four-arm2NWB"/>
</vehicle>
<vehicle id="40" depart="40">
    <route edges="four-arm2bend bend2T-intersection_LTL T-intersection2incoming_LTL incoming2four-arm_LTL four-arm2WB"/>
</vehicle>
<vehicle id="199" depart="199">
    <route edges="EB2incoming incoming2four-arm_LTL"/>
</vehicle>
<vehicle id="277" depart="277">
    <route edges="NWB2four-arm_LTL four-arm2bend bend2T-intersection_LTL T-intersection2incoming_LTL incoming2four-arm_LTL"/>
</vehicle>
<vehicle id="200" depart="200" type="Ambulance">
    <route edges="NEB2incoming_LTL incoming2four-arm_LTL four-arm2bend bend2T-intersection_LTL T-intersection2incoming_LTL"/>
</vehicle>
<vehicle id="1" depart="1">
    <route edges="T-intersection2bend bend2four-arm_LTL four-arm2NWB"/>
</vehicle>
<vehicle id="99" depart="99">
    <route edges="WB2four-arm_LTL four-arm2bend bend2T-intersection_LTL T-intersection2incoming_LTL incoming2four-arm_LTL four-arm2WB"/>
</vehicle>
<vehicle id="283" depart="283">
    <route edges="WB2four-arm_LTL four-arm2incoming"/>
</vehicle>
<vehicle id="261" depart="261">
    <route edges="EB2incoming incoming2four-arm_LTL"/>
</vehicle>
<vehicle id="274" depart="274">
    <route edges="EB2incoming incoming2four-arm_LTL four-arm2NWB"/>
</vehicle>
<vehicle id="92" depart="92" type="Ambulance">
    <route edges="NEB2incoming_LTL incoming2four-arm_LTL four-arm2bend"/>
</vehicle>
<vehicle id="129" depart="129" type="Ambulance">
    <route edges="SEB2T-intersection T-intersection2bend"/>
</vehicle>
<vehicle id="210" depart="210" type="FireTruck">
    <route edges="WB2four-arm_LTL four-arm2NWB"/>
</vehicle>
<vehicle id="252" depart="252" type="FireTruck">
    <route edges="NEB2incoming_LTL incoming2four-arm_LTL four-arm2bend bend2T-intersection_LTL"/>
</vehicle>
<vehicle id="11" depart="11">
    <route edges="incoming2four-arm_LTL four-arm2bend bend2T-intersection_LTL T-intersection2incoming_LTL"/>
</vehicle>
<vehicle id="97" depart="97">
    <route edges="bend2four-arm_LTL four-arm2incoming incoming2EB"/>
</vehicle>
<vehicle id="13" depart="13">
    <route edges="SEB2T-intersection T-intersection2bend"/>
</vehicle>
<vehicle id="266" depart="266">
    <route edges="T-intersection2bend bend2four-arm_LTL four-arm2incoming incoming2EB"/>
</vehicle>
<vehicle id="2" depart="2">
    <route edges="four-arm2incoming incoming2EB"/>
</vehicle>
<vehicle id="236" depart="236">
    <route edges="NEB2incoming_LTL incoming2four-arm_LTL"/>
</vehicle>
<vehicle id="230" depart="230" type="PoliceCar">
    <route edges="SEB2T-intersection T-intersection2incoming_LTL incoming2EB"/>
</vehicle>
<vehicle id="102" depart="102">
    <route edges="four-arm2bend bend2T-intersection_LTL T-intersection2incoming_LTL"/>
</vehicle>
<vehicle id="30" depart="30">
    <route edges="T-intersection2incoming_LTL incoming2four-arm_LTL four-arm2NWB"/>
</vehicle>
<vehicle id="32" depart="32" type="PoliceCar">
    <route edges="bend2four-arm_LTL four-arm2incoming"/>
</vehicle>
<vehicle id="88" depart="88" type="Ambulance">
    <route edges="T-intersection2incoming_LTL incoming2four-arm_LTL four-arm2WB"/>
</vehicle>
<vehicle id="250" depart="250" type="PoliceCar">
    <route edges="four-arm2incoming"/>
</vehicle>
<vehicle id="195" depart="195" type="Ambulance">
    <route edges="WB2four-arm_LTL four-arm2bend bend2T-intersection_LTL T-intersection2SEB"/>
</vehicle>
<vehicle id="73" depart="73" type="FireTruck">
    <route edges="EB2incoming incoming2four-arm_LTL four-arm2bend"/>
</vehicle>
<vehicle id="87" depart="87">
    <route edges="bend2four-arm_LTL"/>
</vehicle>
<vehicle id="68" depart="68" type="PoliceCar">
    <route edges="SEB2T-intersection T-intersection2incoming_LTL incoming2four-arm_LTL four-arm2WB"/>
</vehicle>
<vehicle id="281" depart="281">
    <route edges="SEB2T-intersection T-intersection2incoming_LTL"/>
</vehicle>
<vehicle id="211" depart="211" type="Ambulance">
    <route edges="EB2incoming incoming2four-arm_LTL four-arm2bend bend2T-intersection_LTL T-intersection2SEB"/>
</vehicle>
<vehicle id="21" depart="21" type="FireTruck">
    <route edges="NWB2four-arm_LTL four-arm2incoming"/>
</vehicle>
<vehicle id="224" depart="224" type="Ambulance">
    <route edges="T-intersection2bend bend2four-arm_LTL four-arm2NWB"/>
</vehicle>
<vehicle id="104" depart="104">
    <route edges="NEB2incoming_LTL incoming2four-arm_LTL"/>
</vehicle>
<vehicle id="295" depart="295" type="PoliceCar">
    <route edges="four-arm2bend bend2T-intersection_LTL T-intersection2incoming_LTL"/>
</vehicle>
<vehicle id="90" depart="90" type="Ambulance">
    <route edges="bend2T-intersection_LTL T-intersection2incoming_LTL incoming2EB"/>
</vehicle>
<vehicle id="69" depart="69">
    <route edges="incoming2four-arm_LTL four-arm2bend bend2T-intersection_LTL T-intersection2incoming_LTL incoming2EB"/>
</vehicle>
<vehicle id="127" depart="127">
    <route edges="T-intersection2incoming_LTL incoming2EB"/>
</vehicle>
<vehicle id="46" depart="46">
    <route edges="NEB2incoming_LTL incoming2four-arm_LTL four-arm2bend bend2T-intersection_LTL T-intersection2incoming_LTL"/>
</vehicle>
<vehicle id="106" depart="106" type="Ambulance">
    <route edges="NEB2incoming_LTL incoming2four-arm_LTL"/>
</vehicle>
<vehicle id="3" depart="3" type="PoliceCar">
    <route edges="SEB2T-intersection T-intersection2bend"/>
</vehicle>
<vehicle id="50" depart="50">
    <route edges="EB2incoming incoming2four-arm_LTL four-arm2NWB"/>
</vehicle>
<vehicle id="126" depart="126">
    <route edges="T-intersection2incoming_LTL incoming2EB"/>
</vehicle>
<vehicle id="58" depart="58" type="PoliceCar">
    <route edges="SEB2T-intersection T-intersection2incoming_LTL incoming2four-arm_LTL four-arm2bend"/>
</vehicle>
<vehicle id="130" depart="130" type="PoliceCar">
    <route edges="four-arm2bend bend2T-intersection_LTL T-intersection2incoming_LTL"/>
</vehicle>
<vehicle id="290" depart="290">
    <route edges="NEB2incoming_LTL incoming2four-arm_LTL four-arm2bend"/>
</vehicle>
<vehicle id="114" depart="114" type="Ambulance">
    <route edges="bend2T-intersection_LTL T-intersection2incoming_LTL incoming2four-arm_LTL four-arm2WB"/>
</vehicle>
<vehicle id="172" depart="172">
    <route edges="bend2T-intersection_LTL T-intersection2incoming_LTL incoming2EB"/>
</vehicle>
<vehicle id="81" depart="81" type="FireTruck">
    <route edges="four-arm2bend bend2T-intersection_LTL T-intersection2incoming_LTL"/>
</vehicle>
<vehicle id="38" depart="38" type="Ambulance">
    <route edges="incoming2four-arm_LTL four-arm2bend bend2T-intersection_LTL"/>
</vehicle>
<vehicle id="296" depart="296" type="FireTruck">
    <route edges="bend2four-arm_LTL"/>
</vehicle>
<vehicle id="135" depart="135">
    <route edges="NWB2four-arm_LTL four-arm2bend bend2T-intersection_LTL T-intersection2incoming_LTL incoming2four-arm_LTL"/>
</vehicle>
<vehicle id="86" depart="86" type="Ambulance">
    <route edges="four-arm2bend bend2T-intersection_LTL T-intersection2incoming_LTL incoming2four-arm_LTL four-arm2NWB"/>
</vehicle>
<vehicle id="117" depart="117">
    <route edges="T-intersection2incoming_LTL incoming2four-arm_LTL"/>
</vehicle>
<vehicle id="212" depart="212" type="Ambulance">
    <route edges="T-intersection2incoming_LTL incoming2four-arm_LTL four-arm2WB"/>
</vehicle>
<vehicle id="289" depart="289" type="Ambulance">
    <route edges="WB2four-arm_LTL four-arm2bend bend2T-intersection_LTL T-intersection2SEB"/>
</vehicle>
<vehicle id="284" depart="284" type="FireTruck">
    <route edges="NWB2four-arm_LTL four-arm2bend bend2T-intersection_LTL"/>
</vehicle>
<vehicle id="26" depart="26" type="FireTruck">
    <route edges="four-arm2bend bend2T-intersection_LTL T-intersection2incoming_LTL"/>
</vehicle>
<vehicle id="160" depart="160" type="PoliceCar">
    <route edges="bend2T-intersection_LTL T-intersection2incoming_LTL incoming2four-arm_LTL four-arm2NWB"/>
</vehicle>
<vehicle id="62" depart="62" type="PoliceCar">
    <route edges="incoming2four-arm_LTL four-arm2bend"/>
</vehicle>
<vehicle id="57" depart="57">
    <route edges="EB2incoming incoming2four-arm_LTL four-arm2bend bend2T-intersection_LTL T-intersection2SEB"/>
</vehicle>
<vehicle id="161" depart="161">
    <route edges="EB2incoming incoming2four-arm_LTL four-arm2WB"/>
</vehicle>
<vehicle id="280" depart="280">
    <route edges="NWB2four-arm_LTL four-arm2incoming"/>
</vehicle>
<vehicle id="137" depart="137" type="PoliceCar">
    <route edges="SEB2T-intersection T-intersection2incoming_LTL incoming2four-arm_LTL four-arm2NWB"/>
</vehicle>
</routes>
