<?xml version="1.0" encoding="UTF-8"?>

<routes xmlns:xsi="http://www.w3.org/2001/XMLSchema-instance" xsi:noNamespaceSchemaLocation="http://sumo.dlr.de/xsd/routes_file.xsd">

    <!-- Emergency Vehicle Type -->
    <vType id="FireTruck" vClass="emergency" guiShape="firebrigade"/>
    <vType id="Ambulance" vClass="emergency" guiShape="emergency"/>
    <vType id="PoliceCar" vClass="emergency" guiShape="police"/>
<vehicle id="94" depart="94">
    <route edges="incoming2four-arm_LTL four-arm2NWB"/>
</vehicle>
<vehicle id="156" depart="156">
    <route edges="SEB2T-intersection T-intersection2incoming_LTL incoming2four-arm_LTL four-arm2bend bend2T-intersection_LTL T-intersection2SEB"/>
</vehicle>
<vehicle id="204" depart="204">
    <route edges="incoming2four-arm_LTL four-arm2bend bend2T-intersection_LTL T-intersection2SEB"/>
</vehicle>
<vehicle id="37" depart="37">
    <route edges="four-arm2bend bend2T-intersection_LTL T-intersection2incoming_LTL"/>
</vehicle>
<vehicle id="32" depart="32">
    <route edges="SEB2T-intersection T-intersection2incoming_LTL incoming2EB"/>
</vehicle>
<vehicle id="97" depart="97">
    <route edges="bend2T-intersection_LTL T-intersection2incoming_LTL incoming2four-arm_LTL four-arm2WB"/>
</vehicle>
<vehicle id="98" depart="98">
    <route edges="NEB2incoming_LTL incoming2four-arm_LTL"/>
</vehicle>
<vehicle id="181" depart="181">
    <route edges="NWB2four-arm_LTL four-arm2incoming"/>
</vehicle>
<vehicle id="87" depart="87">
    <route edges="SEB2T-intersection T-intersection2incoming_LTL incoming2four-arm_LTL four-arm2NWB"/>
</vehicle>
<vehicle id="107" depart="107">
    <route edges="NWB2four-arm_LTL four-arm2bend bend2T-intersection_LTL T-intersection2SEB"/>
</vehicle>
<vehicle id="285" depart="285" type="FireTruck">
    <route edges="T-intersection2incoming_LTL incoming2four-arm_LTL"/>
</vehicle>
<vehicle id="266" depart="266">
    <route edges="bend2four-arm_LTL four-arm2incoming incoming2EB"/>
</vehicle>
<vehicle id="171" depart="171">
    <route edges="SEB2T-intersection T-intersection2bend"/>
</vehicle>
<vehicle id="73" depart="73">
    <route edges="four-arm2bend bend2T-intersection_LTL T-intersection2incoming_LTL incoming2four-arm_LTL"/>
</vehicle>
<vehicle id="152" depart="152" type="PoliceCar">
    <route edges="NWB2four-arm_LTL four-arm2bend"/>
</vehicle>
<vehicle id="22" depart="22">
    <route edges="NEB2incoming_LTL incoming2four-arm_LTL four-arm2bend"/>
</vehicle>
<vehicle id="210" depart="210">
    <route edges="SEB2T-intersection T-intersection2incoming_LTL incoming2EB"/>
</vehicle>
<vehicle id="135" depart="135">
    <route edges="T-intersection2bend bend2four-arm_LTL four-arm2NWB"/>
</vehicle>
<vehicle id="211" depart="211">
    <route edges="four-arm2bend bend2T-intersection_LTL T-intersection2incoming_LTL incoming2four-arm_LTL"/>
</vehicle>
<vehicle id="84" depart="84">
    <route edges="incoming2four-arm_LTL four-arm2bend bend2T-intersection_LTL T-intersection2incoming_LTL incoming2EB"/>
</vehicle>
<vehicle id="250" depart="250">
    <route edges="T-intersection2incoming_LTL incoming2four-arm_LTL four-arm2WB"/>
</vehicle>
<vehicle id="49" depart="49">
    <route edges="bend2T-intersection_LTL T-intersection2incoming_LTL incoming2four-arm_LTL four-arm2WB"/>
</vehicle>
<vehicle id="61" depart="61">
    <route edges="four-arm2incoming"/>
</vehicle>
<vehicle id="6" depart="6" type="PoliceCar">
    <route edges="bend2T-intersection_LTL T-intersection2incoming_LTL incoming2EB"/>
</vehicle>
<vehicle id="205" depart="205">
    <route edges="incoming2four-arm_LTL four-arm2bend bend2T-intersection_LTL T-intersection2incoming_LTL"/>
</vehicle>
<vehicle id="247" depart="247">
    <route edges="bend2four-arm_LTL four-arm2incoming"/>
</vehicle>
<vehicle id="167" depart="167">
    <route edges="EB2incoming incoming2four-arm_LTL four-arm2WB"/>
</vehicle>
<vehicle id="228" depart="228">
    <route edges="EB2incoming incoming2four-arm_LTL"/>
</vehicle>
<vehicle id="174" depart="174">
    <route edges="four-arm2bend bend2T-intersection_LTL T-intersection2incoming_LTL"/>
</vehicle>
<vehicle id="153" depart="153" type="Ambulance">
    <route edges="EB2incoming incoming2four-arm_LTL four-arm2bend"/>
</vehicle>
<vehicle id="219" depart="219">
    <route edges="SEB2T-intersection T-intersection2incoming_LTL incoming2four-arm_LTL four-arm2bend bend2T-intersection_LTL T-intersection2SEB"/>
</vehicle>
<vehicle id="158" depart="158" type="Ambulance">
    <route edges="T-intersection2bend bend2four-arm_LTL four-arm2incoming incoming2EB"/>
</vehicle>
<vehicle id="248" depart="248">
    <route edges="four-arm2bend bend2T-intersection_LTL T-intersection2incoming_LTL incoming2EB"/>
</vehicle>
<vehicle id="165" depart="165" type="FireTruck">
    <route edges="SEB2T-intersection T-intersection2incoming_LTL incoming2four-arm_LTL"/>
</vehicle>
<vehicle id="160" depart="160">
    <route edges="SEB2T-intersection T-intersection2bend"/>
</vehicle>
<vehicle id="118" depart="118">
    <route edges="T-intersection2incoming_LTL incoming2EB"/>
</vehicle>
<vehicle id="139" depart="139" type="FireTruck">
    <route edges="bend2T-intersection_LTL T-intersection2incoming_LTL incoming2EB"/>
</vehicle>
<vehicle id="260" depart="260">
    <route edges="T-intersection2bend bend2four-arm_LTL four-arm2NWB"/>
</vehicle>
<vehicle id="64" depart="64">
    <route edges="SEB2T-intersection T-intersection2incoming_LTL incoming2four-arm_LTL four-arm2bend bend2T-intersection_LTL"/>
</vehicle>
<vehicle id="17" depart="17">
    <route edges="NWB2four-arm_LTL four-arm2incoming"/>
</vehicle>
<vehicle id="172" depart="172">
    <route edges="EB2incoming incoming2four-arm_LTL four-arm2NWB"/>
</vehicle>
<vehicle id="35" depart="35" type="PoliceCar">
    <route edges="SEB2T-intersection T-intersection2incoming_LTL incoming2EB"/>
</vehicle>
<vehicle id="288" depart="288">
    <route edges="NEB2incoming_LTL incoming2four-arm_LTL four-arm2bend"/>
</vehicle>
<vehicle id="187" depart="187">
    <route edges="NEB2incoming_LTL incoming2four-arm_LTL"/>
</vehicle>
<vehicle id="46" depart="46" type="FireTruck">
    <route edges="T-intersection2incoming_LTL incoming2EB"/>
</vehicle>
<vehicle id="101" depart="101">
    <route edges="T-intersection2incoming_LTL incoming2four-arm_LTL four-arm2bend"/>
</vehicle>
<vehicle id="126" depart="126">
    <route edges="T-intersection2bend bend2four-arm_LTL four-arm2WB"/>
</vehicle>
<vehicle id="206" depart="206">
    <route edges="NEB2incoming_LTL incoming2four-arm_LTL four-arm2bend"/>
</vehicle>
<vehicle id="218" depart="218">
    <route edges="bend2T-intersection_LTL T-intersection2incoming_LTL incoming2four-arm_LTL four-arm2WB"/>
</vehicle>
<vehicle id="168" depart="168">
    <route edges="EB2incoming incoming2four-arm_LTL"/>
</vehicle>
<vehicle id="132" depart="132">
    <route edges="T-intersection2incoming_LTL incoming2four-arm_LTL"/>
</vehicle>
<vehicle id="220" depart="220">
    <route edges="SEB2T-intersection T-intersection2incoming_LTL incoming2four-arm_LTL four-arm2bend bend2T-intersection_LTL"/>
</vehicle>
<vehicle id="261" depart="261">
    <route edges="NEB2incoming_LTL incoming2four-arm_LTL four-arm2bend bend2T-intersection_LTL"/>
</vehicle>
<vehicle id="39" depart="39">
    <route edges="T-intersection2incoming_LTL incoming2four-arm_LTL four-arm2WB"/>
</vehicle>
<vehicle id="280" depart="280">
    <route edges="NEB2incoming_LTL incoming2four-arm_LTL four-arm2NWB"/>
</vehicle>
<vehicle id="63" depart="63" type="Ambulance">
    <route edges="bend2T-intersection_LTL T-intersection2incoming_LTL incoming2four-arm_LTL"/>
</vehicle>
<vehicle id="20" depart="20">
    <route edges="four-arm2incoming"/>
</vehicle>
<vehicle id="36" depart="36" type="FireTruck">
    <route edges="WB2four-arm_LTL four-arm2bend bend2T-intersection_LTL T-intersection2incoming_LTL"/>
</vehicle>
<vehicle id="44" depart="44">
    <route edges="incoming2four-arm_LTL four-arm2NWB"/>
</vehicle>
<vehicle id="212" depart="212" type="Ambulance">
    <route edges="SEB2T-intersection T-intersection2incoming_LTL incoming2four-arm_LTL four-arm2WB"/>
</vehicle>
<vehicle id="227" depart="227">
    <route edges="incoming2four-arm_LTL four-arm2bend bend2T-intersection_LTL T-intersection2incoming_LTL"/>
</vehicle>
<vehicle id="296" depart="296">
    <route edges="T-intersection2incoming_LTL"/>
</vehicle>
<vehicle id="100" depart="100">
    <route edges="NWB2four-arm_LTL four-arm2bend bend2T-intersection_LTL T-intersection2incoming_LTL incoming2four-arm_LTL four-arm2NWB"/>
</vehicle>
<vehicle id="16" depart="16">
    <route edges="SEB2T-intersection T-intersection2incoming_LTL incoming2four-arm_LTL four-arm2NWB"/>
</vehicle>
<vehicle id="225" depart="225">
    <route edges="WB2four-arm_LTL four-arm2bend bend2T-intersection_LTL"/>
</vehicle>
<vehicle id="131" depart="131" type="Ambulance">
    <route edges="four-arm2bend bend2T-intersection_LTL T-intersection2incoming_LTL"/>
</vehicle>
<vehicle id="106" depart="106">
    <route edges="incoming2four-arm_LTL four-arm2bend bend2T-intersection_LTL T-intersection2incoming_LTL"/>
</vehicle>
<vehicle id="291" depart="291">
    <route edges="SEB2T-intersection T-intersection2incoming_LTL incoming2four-arm_LTL four-arm2WB"/>
</vehicle>
<vehicle id="57" depart="57" type="FireTruck">
    <route edges="NWB2four-arm_LTL four-arm2bend bend2T-intersection_LTL T-intersection2SEB"/>
</vehicle>
<vehicle id="273" depart="273">
    <route edges="NEB2incoming_LTL incoming2four-arm_LTL four-arm2bend bend2T-intersection_LTL T-intersection2SEB"/>
</vehicle>
<vehicle id="154" depart="154" type="PoliceCar">
    <route edges="SEB2T-intersection T-intersection2incoming_LTL incoming2four-arm_LTL four-arm2NWB"/>
</vehicle>
<vehicle id="269" depart="269">
    <route edges="NEB2incoming_LTL incoming2four-arm_LTL four-arm2bend bend2T-intersection_LTL T-intersection2SEB"/>
</vehicle>
<vehicle id="150" depart="150" type="PoliceCar">
    <route edges="SEB2T-intersection T-intersection2incoming_LTL incoming2EB"/>
</vehicle>
<vehicle id="117" depart="117">
    <route edges="EB2incoming incoming2four-arm_LTL four-arm2bend bend2T-intersection_LTL"/>
</vehicle>
<vehicle id="95" depart="95">
    <route edges="EB2incoming incoming2four-arm_LTL four-arm2bend bend2T-intersection_LTL"/>
</vehicle>
<vehicle id="292" depart="292">
    <route edges="SEB2T-intersection T-intersection2incoming_LTL incoming2four-arm_LTL four-arm2NWB"/>
</vehicle>
<vehicle id="19" depart="19">
    <route edges="SEB2T-intersection T-intersection2incoming_LTL incoming2four-arm_LTL four-arm2WB"/>
</vehicle>
<vehicle id="125" depart="125">
    <route edges="bend2four-arm_LTL four-arm2incoming incoming2EB"/>
</vehicle>
<vehicle id="7" depart="7">
    <route edges="SEB2T-intersection T-intersection2incoming_LTL incoming2four-arm_LTL four-arm2WB"/>
</vehicle>
<vehicle id="80" depart="80">
    <route edges="incoming2four-arm_LTL four-arm2bend"/>
</vehicle>
<vehicle id="230" depart="230">
    <route edges="bend2T-intersection_LTL T-intersection2incoming_LTL incoming2four-arm_LTL four-arm2WB"/>
</vehicle>
<vehicle id="186" depart="186">
    <route edges="SEB2T-intersection T-intersection2incoming_LTL incoming2four-arm_LTL four-arm2NWB"/>
</vehicle>
<vehicle id="82" depart="82">
    <route edges="NWB2four-arm_LTL four-arm2bend bend2T-intersection_LTL T-intersection2incoming_LTL"/>
</vehicle>
<vehicle id="242" depart="242">
    <route edges="incoming2four-arm_LTL four-arm2bend bend2T-intersection_LTL T-intersection2incoming_LTL"/>
</vehicle>
<vehicle id="194" depart="194">
    <route edges="NWB2four-arm_LTL four-arm2bend bend2T-intersection_LTL T-intersection2incoming_LTL"/>
</vehicle>
<vehicle id="177" depart="177" type="Ambulance">
    <route edges="NWB2four-arm_LTL four-arm2bend bend2T-intersection_LTL T-intersection2SEB"/>
</vehicle>
<vehicle id="123" depart="123">
    <route edges="SEB2T-intersection T-intersection2incoming_LTL incoming2EB"/>
</vehicle>
<vehicle id="60" depart="60">
    <route edges="T-intersection2incoming_LTL incoming2four-arm_LTL four-arm2bend bend2T-intersection_LTL T-intersection2SEB"/>
</vehicle>
<vehicle id="164" depart="164">
    <route edges="SEB2T-intersection T-intersection2incoming_LTL incoming2four-arm_LTL"/>
</vehicle>
<vehicle id="8" depart="8">
    <route edges="four-arm2bend bend2T-intersection_LTL T-intersection2incoming_LTL incoming2four-arm_LTL four-arm2WB"/>
</vehicle>
<vehicle id="257" depart="257" type="PoliceCar">
    <route edges="bend2T-intersection_LTL T-intersection2incoming_LTL incoming2four-arm_LTL four-arm2NWB"/>
</vehicle>
<vehicle id="277" depart="277">
    <route edges="SEB2T-intersection T-intersection2incoming_LTL incoming2four-arm_LTL four-arm2WB"/>
</vehicle>
<vehicle id="169" depart="169">
    <route edges="WB2four-arm_LTL four-arm2bend bend2T-intersection_LTL T-intersection2incoming_LTL incoming2four-arm_LTL four-arm2WB"/>
</vehicle>
<vehicle id="239" depart="239" type="FireTruck">
    <route edges="bend2T-intersection_LTL T-intersection2SEB"/>
</vehicle>
<vehicle id="141" depart="141">
    <route edges="T-intersection2bend bend2four-arm_LTL four-arm2NWB"/>
</vehicle>
<vehicle id="54" depart="54">
    <route edges="WB2four-arm_LTL four-arm2bend bend2T-intersection_LTL"/>
</vehicle>
<vehicle id="157" depart="157">
    <route edges="EB2incoming incoming2four-arm_LTL four-arm2NWB"/>
</vehicle>
<vehicle id="175" depart="175" type="PoliceCar">
    <route edges="SEB2T-intersection T-intersection2incoming_LTL incoming2four-arm_LTL four-arm2bend bend2T-intersection_LTL"/>
</vehicle>
<vehicle id="283" depart="283" type="Ambulance">
    <route edges="EB2incoming incoming2four-arm_LTL four-arm2bend bend2T-intersection_LTL T-intersection2SEB"/>
</vehicle>
<vehicle id="197" depart="197">
    <route edges="SEB2T-intersection T-intersection2incoming_LTL incoming2four-arm_LTL"/>
</vehicle>
<vehicle id="77" depart="77">
    <route edges="SEB2T-intersection T-intersection2incoming_LTL incoming2four-arm_LTL four-arm2NWB"/>
</vehicle>
<vehicle id="258" depart="258" type="FireTruck">
    <route edges="SEB2T-intersection T-intersection2incoming_LTL incoming2four-arm_LTL four-arm2WB"/>
</vehicle>
<vehicle id="246" depart="246">
    <route edges="incoming2four-arm_LTL four-arm2bend bend2T-intersection_LTL T-intersection2incoming_LTL incoming2EB"/>
</vehicle>
<vehicle id="138" depart="138" type="FireTruck">
    <route edges="T-intersection2bend bend2four-arm_LTL four-arm2NWB"/>
</vehicle>
<vehicle id="286" depart="286">
    <route edges="NEB2incoming_LTL incoming2four-arm_LTL four-arm2bend bend2T-intersection_LTL T-intersection2SEB"/>
</vehicle>
<vehicle id="74" depart="74">
    <route edges="SEB2T-intersection T-intersection2incoming_LTL incoming2four-arm_LTL"/>
</vehicle>
<vehicle id="173" depart="173">
    <route edges="bend2T-intersection_LTL T-intersection2incoming_LTL incoming2four-arm_LTL four-arm2WB"/>
</vehicle>
<vehicle id="104" depart="104">
    <route edges="T-intersection2bend bend2four-arm_LTL four-arm2NWB"/>
</vehicle>
<vehicle id="111" depart="111">
    <route edges="SEB2T-intersection T-intersection2incoming_LTL incoming2four-arm_LTL four-arm2NWB"/>
</vehicle>
<vehicle id="121" depart="121">
    <route edges="T-intersection2incoming_LTL incoming2four-arm_LTL four-arm2bend bend2T-intersection_LTL T-intersection2SEB"/>
</vehicle>
<vehicle id="137" depart="137" type="FireTruck">
    <route edges="bend2four-arm_LTL"/>
</vehicle>
<vehicle id="200" depart="200">
    <route edges="T-intersection2incoming_LTL incoming2four-arm_LTL four-arm2bend"/>
</vehicle>
<vehicle id="25" depart="25">
    <route edges="bend2four-arm_LTL four-arm2incoming"/>
</vehicle>
<vehicle id="43" depart="43">
    <route edges="four-arm2bend bend2T-intersection_LTL T-intersection2incoming_LTL"/>
</vehicle>
<vehicle id="119" depart="119">
    <route edges="SEB2T-intersection T-intersection2bend"/>
</vehicle>
<vehicle id="148" depart="148">
    <route edges="SEB2T-intersection T-intersection2incoming_LTL incoming2four-arm_LTL four-arm2WB"/>
</vehicle>
<vehicle id="5" depart="5">
    <route edges="incoming2four-arm_LTL four-arm2bend bend2T-intersection_LTL"/>
</vehicle>
<vehicle id="0" depart="0">
    <route edges="SEB2T-intersection T-intersection2bend"/>
</vehicle>
<vehicle id="59" depart="59">
    <route edges="four-arm2bend bend2T-intersection_LTL T-intersection2incoming_LTL incoming2four-arm_LTL four-arm2WB"/>
</vehicle>
<vehicle id="116" depart="116">
    <route edges="T-intersection2incoming_LTL incoming2four-arm_LTL four-arm2WB"/>
</vehicle>
<vehicle id="109" depart="109">
    <route edges="bend2T-intersection_LTL T-intersection2incoming_LTL incoming2four-arm_LTL four-arm2NWB"/>
</vehicle>
<vehicle id="182" depart="182">
    <route edges="NEB2incoming_LTL incoming2four-arm_LTL four-arm2bend"/>
</vehicle>
<vehicle id="268" depart="268">
    <route edges="bend2T-intersection_LTL T-intersection2incoming_LTL incoming2four-arm_LTL four-arm2WB"/>
</vehicle>
<vehicle id="2" depart="2" type="Ambulance">
    <route edges="T-intersection2incoming_LTL incoming2four-arm_LTL four-arm2WB"/>
</vehicle>
<vehicle id="23" depart="23">
    <route edges="NEB2incoming_LTL incoming2four-arm_LTL four-arm2bend"/>
</vehicle>
<vehicle id="140" depart="140">
    <route edges="SEB2T-intersection T-intersection2bend"/>
</vehicle>
<vehicle id="120" depart="120">
    <route edges="T-intersection2incoming_LTL incoming2EB"/>
</vehicle>
<vehicle id="124" depart="124">
    <route edges="WB2four-arm_LTL four-arm2bend bend2T-intersection_LTL"/>
</vehicle>
<vehicle id="147" depart="147">
    <route edges="EB2incoming incoming2four-arm_LTL"/>
</vehicle>
<vehicle id="270" depart="270">
    <route edges="NWB2four-arm_LTL four-arm2bend bend2T-intersection_LTL T-intersection2incoming_LTL"/>
</vehicle>
<vehicle id="90" depart="90" type="FireTruck">
    <route edges="bend2T-intersection_LTL T-intersection2incoming_LTL"/>
</vehicle>
<vehicle id="3" depart="3">
    <route edges="NWB2four-arm_LTL four-arm2bend bend2T-intersection_LTL T-intersection2incoming_LTL incoming2four-arm_LTL four-arm2NWB"/>
</vehicle>
<vehicle id="41" depart="41">
    <route edges="NEB2incoming_LTL incoming2four-arm_LTL four-arm2bend"/>
</vehicle>
<vehicle id="192" depart="192">
    <route edges="bend2T-intersection_LTL T-intersection2incoming_LTL incoming2four-arm_LTL four-arm2bend"/>
</vehicle>
<vehicle id="70" depart="70">
    <route edges="four-arm2bend bend2T-intersection_LTL T-intersection2incoming_LTL incoming2four-arm_LTL four-arm2WB"/>
</vehicle>
<vehicle id="214" depart="214">
    <route edges="EB2incoming incoming2four-arm_LTL four-arm2bend bend2T-intersection_LTL T-intersection2SEB"/>
</vehicle>
<vehicle id="89" depart="89" type="PoliceCar">
    <route edges="SEB2T-intersection T-intersection2incoming_LTL incoming2EB"/>
</vehicle>
<vehicle id="62" depart="62">
    <route edges="bend2T-intersection_LTL T-intersection2incoming_LTL incoming2four-arm_LTL"/>
</vehicle>
<vehicle id="295" depart="295" type="FireTruck">
    <route edges="SEB2T-intersection T-intersection2incoming_LTL incoming2four-arm_LTL four-arm2WB"/>
</vehicle>
<vehicle id="176" depart="176">
    <route edges="WB2four-arm_LTL four-arm2incoming"/>
</vehicle>
<vehicle id="297" depart="297">
    <route edges="NEB2incoming_LTL incoming2four-arm_LTL four-arm2bend bend2T-intersection_LTL T-intersection2incoming_LTL"/>
</vehicle>
<vehicle id="275" depart="275">
    <route edges="WB2four-arm_LTL four-arm2bend bend2T-intersection_LTL"/>
</vehicle>
</routes>
