<?xml version="1.0" encoding="UTF-8"?>

<routes xmlns:xsi="http://www.w3.org/2001/XMLSchema-instance" xsi:noNamespaceSchemaLocation="http://sumo.dlr.de/xsd/routes_file.xsd">

    <!-- Emergency Vehicle Type -->
    <vType id="FireTruck" vClass="emergency" guiShape="firebrigade"/>
    <vType id="Ambulance" vClass="emergency" guiShape="emergency"/>
    <vType id="PoliceCar" vClass="emergency" guiShape="police"/>
<vehicle id="66" depart="66" type="Ambulance">
    <route edges="NEB2incoming_LTL incoming2four-arm_LTL four-arm2bend"/>
</vehicle>
<vehicle id="59" depart="59">
    <route edges="SEB2T-intersection T-intersection2incoming_LTL incoming2four-arm_LTL four-arm2WB"/>
</vehicle>
<vehicle id="1" depart="1" type="FireTruck">
    <route edges="SEB2T-intersection T-intersection2incoming_LTL incoming2four-arm_LTL four-arm2bend bend2T-intersection_LTL T-intersection2SEB"/>
</vehicle>
<vehicle id="189" depart="189" type="FireTruck">
    <route edges="NEB2incoming_LTL incoming2four-arm_LTL four-arm2bend bend2T-intersection_LTL T-intersection2incoming_LTL"/>
</vehicle>
<vehicle id="22" depart="22">
    <route edges="NWB2four-arm_LTL four-arm2bend bend2T-intersection_LTL T-intersection2incoming_LTL incoming2four-arm_LTL four-arm2NWB"/>
</vehicle>
<vehicle id="298" depart="298" type="FireTruck">
    <route edges="SEB2T-intersection T-intersection2bend"/>
</vehicle>
<vehicle id="223" depart="223">
    <route edges="NEB2incoming_LTL incoming2four-arm_LTL four-arm2bend"/>
</vehicle>
<vehicle id="43" depart="43">
    <route edges="WB2four-arm_LTL four-arm2incoming incoming2EB"/>
</vehicle>
<vehicle id="16" depart="16" type="Ambulance">
    <route edges="EB2incoming incoming2four-arm_LTL four-arm2bend"/>
</vehicle>
<vehicle id="133" depart="133" type="PoliceCar">
    <route edges="EB2incoming incoming2four-arm_LTL four-arm2bend bend2T-intersection_LTL T-intersection2incoming_LTL incoming2EB"/>
</vehicle>
<vehicle id="95" depart="95" type="PoliceCar">
    <route edges="incoming2four-arm_LTL four-arm2bend bend2T-intersection_LTL T-intersection2incoming_LTL"/>
</vehicle>
<vehicle id="51" depart="51" type="FireTruck">
    <route edges="T-intersection2incoming_LTL incoming2four-arm_LTL four-arm2bend bend2T-intersection_LTL T-intersection2SEB"/>
</vehicle>
<vehicle id="220" depart="220" type="PoliceCar">
    <route edges="bend2four-arm_LTL four-arm2incoming"/>
</vehicle>
<vehicle id="95" depart="95" type="FireTruck">
    <route edges="T-intersection2incoming_LTL incoming2EB"/>
</vehicle>
<vehicle id="189" depart="189">
    <route edges="NEB2incoming_LTL incoming2EB"/>
</vehicle>
<vehicle id="14" depart="14" type="PoliceCar">
    <route edges="SEB2T-intersection T-intersection2incoming_LTL incoming2four-arm_LTL four-arm2WB"/>
</vehicle>
<vehicle id="31" depart="31" type="Ambulance">
    <route edges="T-intersection2incoming_LTL incoming2four-arm_LTL four-arm2bend bend2T-intersection_LTL"/>
</vehicle>
<vehicle id="118" depart="118" type="Ambulance">
    <route edges="SEB2T-intersection T-intersection2bend bend2four-arm_LTL"/>
</vehicle>
<vehicle id="263" depart="263" type="PoliceCar">
    <route edges="incoming2four-arm_LTL four-arm2bend bend2T-intersection_LTL"/>
</vehicle>
<vehicle id="4" depart="4">
    <route edges="SEB2T-intersection T-intersection2bend"/>
</vehicle>
<vehicle id="6" depart="6" type="FireTruck">
    <route edges="SEB2T-intersection T-intersection2incoming_LTL incoming2four-arm_LTL four-arm2bend bend2T-intersection_LTL T-intersection2SEB"/>
</vehicle>
<vehicle id="173" depart="173">
    <route edges="SEB2T-intersection T-intersection2incoming_LTL incoming2four-arm_LTL four-arm2WB"/>
</vehicle>
<vehicle id="276" depart="276">
    <route edges="SEB2T-intersection T-intersection2incoming_LTL incoming2four-arm_LTL four-arm2NWB"/>
</vehicle>
<vehicle id="277" depart="277">
    <route edges="incoming2four-arm_LTL four-arm2bend bend2T-intersection_LTL"/>
</vehicle>
<vehicle id="106" depart="106" type="Ambulance">
    <route edges="NEB2incoming_LTL incoming2EB"/>
</vehicle>
<vehicle id="209" depart="209" type="FireTruck">
    <route edges="EB2incoming incoming2four-arm_LTL four-arm2WB"/>
</vehicle>
<vehicle id="146" depart="146">
    <route edges="incoming2four-arm_LTL four-arm2bend bend2T-intersection_LTL"/>
</vehicle>
<vehicle id="128" depart="128">
    <route edges="NEB2incoming_LTL incoming2four-arm_LTL four-arm2bend"/>
</vehicle>
<vehicle id="86" depart="86" type="Ambulance">
    <route edges="bend2T-intersection_LTL T-intersection2incoming_LTL incoming2four-arm_LTL four-arm2WB"/>
</vehicle>
<vehicle id="153" depart="153" type="PoliceCar">
    <route edges="WB2four-arm_LTL four-arm2bend bend2T-intersection_LTL T-intersection2incoming_LTL incoming2four-arm_LTL four-arm2WB"/>
</vehicle>
<vehicle id="205" depart="205" type="FireTruck">
    <route edges="four-arm2bend bend2T-intersection_LTL T-intersection2incoming_LTL incoming2EB"/>
</vehicle>
<vehicle id="148" depart="148">
    <route edges="T-intersection2incoming_LTL incoming2four-arm_LTL four-arm2WB"/>
</vehicle>
<vehicle id="198" depart="198" type="FireTruck">
    <route edges="NWB2four-arm_LTL four-arm2incoming"/>
</vehicle>
<vehicle id="214" depart="214" type="PoliceCar">
    <route edges="bend2T-intersection_LTL T-intersection2incoming_LTL incoming2four-arm_LTL four-arm2NWB"/>
</vehicle>
<vehicle id="264" depart="264">
    <route edges="SEB2T-intersection T-intersection2incoming_LTL incoming2four-arm_LTL four-arm2bend bend2T-intersection_LTL"/>
</vehicle>
<vehicle id="58" depart="58">
    <route edges="EB2incoming incoming2four-arm_LTL four-arm2bend bend2T-intersection_LTL T-intersection2SEB"/>
</vehicle>
<vehicle id="279" depart="279" type="FireTruck">
    <route edges="T-intersection2incoming_LTL incoming2four-arm_LTL four-arm2WB"/>
</vehicle>
<vehicle id="199" depart="199">
    <route edges="SEB2T-intersection T-intersection2incoming_LTL incoming2four-arm_LTL four-arm2bend bend2T-intersection_LTL T-intersection2SEB"/>
</vehicle>
<vehicle id="102" depart="102" type="PoliceCar">
    <route edges="four-arm2bend bend2T-intersection_LTL T-intersection2incoming_LTL incoming2four-arm_LTL four-arm2WB"/>
</vehicle>
<vehicle id="63" depart="63">
    <route edges="four-arm2bend bend2T-intersection_LTL T-intersection2incoming_LTL incoming2four-arm_LTL four-arm2WB"/>
</vehicle>
<vehicle id="252" depart="252">
    <route edges="bend2T-intersection_LTL T-intersection2SEB"/>
</vehicle>
<vehicle id="52" depart="52" type="PoliceCar">
    <route edges="bend2T-intersection_LTL T-intersection2incoming_LTL incoming2four-arm_LTL four-arm2WB"/>
</vehicle>
<vehicle id="12" depart="12">
    <route edges="WB2four-arm_LTL four-arm2incoming"/>
</vehicle>
<vehicle id="112" depart="112">
    <route edges="WB2four-arm_LTL four-arm2bend"/>
</vehicle>
<vehicle id="165" depart="165">
    <route edges="T-intersection2incoming_LTL incoming2four-arm_LTL four-arm2bend bend2T-intersection_LTL"/>
</vehicle>
<vehicle id="79" depart="79">
    <route edges="SEB2T-intersection T-intersection2incoming_LTL incoming2four-arm_LTL four-arm2bend"/>
</vehicle>
<vehicle id="45" depart="45" type="FireTruck">
    <route edges="NWB2four-arm_LTL four-arm2bend"/>
</vehicle>
<vehicle id="56" depart="56">
    <route edges="bend2T-intersection_LTL T-intersection2incoming_LTL incoming2EB"/>
</vehicle>
<vehicle id="223" depart="223">
    <route edges="NWB2four-arm_LTL four-arm2incoming"/>
</vehicle>
<vehicle id="133" depart="133">
    <route edges="T-intersection2incoming_LTL incoming2four-arm_LTL four-arm2WB"/>
</vehicle>
<vehicle id="252" depart="252" type="PoliceCar">
    <route edges="NEB2incoming_LTL incoming2EB"/>
</vehicle>
<vehicle id="20" depart="20" type="PoliceCar">
    <route edges="WB2four-arm_LTL four-arm2NWB"/>
</vehicle>
<vehicle id="215" depart="215" type="FireTruck">
    <route edges="EB2incoming incoming2four-arm_LTL four-arm2bend"/>
</vehicle>
<vehicle id="288" depart="288" type="Ambulance">
    <route edges="T-intersection2bend bend2four-arm_LTL four-arm2NWB"/>
</vehicle>
<vehicle id="230" depart="230" type="PoliceCar">
    <route edges="NEB2incoming_LTL incoming2four-arm_LTL four-arm2bend bend2T-intersection_LTL T-intersection2SEB"/>
</vehicle>
<vehicle id="172" depart="172">
    <route edges="four-arm2bend bend2T-intersection_LTL T-intersection2incoming_LTL incoming2four-arm_LTL four-arm2WB"/>
</vehicle>
<vehicle id="160" depart="160">
    <route edges="T-intersection2incoming_LTL incoming2EB"/>
</vehicle>
<vehicle id="140" depart="140" type="FireTruck">
    <route edges="bend2T-intersection_LTL T-intersection2incoming_LTL incoming2four-arm_LTL four-arm2WB"/>
</vehicle>
<vehicle id="215" depart="215" type="FireTruck">
    <route edges="T-intersection2bend bend2four-arm_LTL four-arm2NWB"/>
</vehicle>
<vehicle id="263" depart="263" type="FireTruck">
    <route edges="NEB2incoming_LTL incoming2four-arm_LTL four-arm2bend"/>
</vehicle>
<vehicle id="28" depart="28" type="Ambulance">
    <route edges="four-arm2bend bend2T-intersection_LTL T-intersection2incoming_LTL incoming2EB"/>
</vehicle>
<vehicle id="266" depart="266">
    <route edges="SEB2T-intersection T-intersection2incoming_LTL incoming2four-arm_LTL four-arm2bend bend2T-intersection_LTL"/>
</vehicle>
<vehicle id="163" depart="163">
    <route edges="four-arm2bend bend2T-intersection_LTL"/>
</vehicle>
<vehicle id="264" depart="264" type="Ambulance">
    <route edges="bend2T-intersection_LTL T-intersection2incoming_LTL incoming2four-arm_LTL"/>
</vehicle>
<vehicle id="28" depart="28" type="FireTruck">
    <route edges="WB2four-arm_LTL four-arm2bend bend2T-intersection_LTL T-intersection2incoming_LTL incoming2four-arm_LTL four-arm2WB"/>
</vehicle>
<vehicle id="110" depart="110" type="Ambulance">
    <route edges="four-arm2incoming"/>
</vehicle>
<vehicle id="243" depart="243">
    <route edges="incoming2four-arm_LTL four-arm2bend bend2T-intersection_LTL T-intersection2incoming_LTL"/>
</vehicle>
<vehicle id="39" depart="39">
    <route edges="WB2four-arm_LTL four-arm2NWB"/>
</vehicle>
<vehicle id="137" depart="137" type="FireTruck">
    <route edges="NWB2four-arm_LTL four-arm2bend bend2T-intersection_LTL T-intersection2incoming_LTL incoming2four-arm_LTL four-arm2NWB"/>
</vehicle>
<vehicle id="94" depart="94">
    <route edges="NWB2four-arm_LTL four-arm2bend bend2T-intersection_LTL T-intersection2incoming_LTL incoming2four-arm_LTL"/>
</vehicle>
<vehicle id="105" depart="105">
    <route edges="NWB2four-arm_LTL four-arm2bend bend2T-intersection_LTL"/>
</vehicle>
<vehicle id="187" depart="187" type="PoliceCar">
    <route edges="incoming2four-arm_LTL four-arm2bend bend2T-intersection_LTL T-intersection2incoming_LTL"/>
</vehicle>
<vehicle id="160" depart="160" type="Ambulance">
    <route edges="NWB2four-arm_LTL four-arm2bend bend2T-intersection_LTL T-intersection2SEB"/>
</vehicle>
<vehicle id="21" depart="21">
    <route edges="four-arm2bend bend2T-intersection_LTL T-intersection2incoming_LTL incoming2four-arm_LTL four-arm2NWB"/>
</vehicle>
<vehicle id="5" depart="5">
    <route edges="WB2four-arm_LTL four-arm2bend bend2T-intersection_LTL"/>
</vehicle>
<vehicle id="144" depart="144" type="FireTruck">
    <route edges="T-intersection2incoming_LTL incoming2four-arm_LTL four-arm2WB"/>
</vehicle>
<vehicle id="262" depart="262">
    <route edges="NEB2incoming_LTL incoming2four-arm_LTL four-arm2bend"/>
</vehicle>
<vehicle id="69" depart="69">
    <route edges="WB2four-arm_LTL four-arm2incoming"/>
</vehicle>
<vehicle id="283" depart="283">
    <route edges="four-arm2bend bend2T-intersection_LTL"/>
</vehicle>
<vehicle id="97" depart="97" type="PoliceCar">
    <route edges="T-intersection2bend bend2four-arm_LTL four-arm2incoming"/>
</vehicle>
<vehicle id="227" depart="227">
    <route edges="bend2four-arm_LTL four-arm2incoming"/>
</vehicle>
<vehicle id="4" depart="4" type="PoliceCar">
    <route edges="EB2incoming incoming2four-arm_LTL four-arm2NWB"/>
</vehicle>
<vehicle id="212" depart="212" type="PoliceCar">
    <route edges="SEB2T-intersection T-intersection2incoming_LTL incoming2four-arm_LTL four-arm2bend bend2T-intersection_LTL"/>
</vehicle>
<vehicle id="270" depart="270">
    <route edges="incoming2four-arm_LTL four-arm2bend bend2T-intersection_LTL T-intersection2incoming_LTL"/>
</vehicle>
<vehicle id="36" depart="36" type="Ambulance">
    <route edges="incoming2four-arm_LTL four-arm2bend bend2T-intersection_LTL T-intersection2incoming_LTL"/>
</vehicle>
<vehicle id="167" depart="167">
    <route edges="EB2incoming incoming2four-arm_LTL four-arm2bend bend2T-intersection_LTL"/>
</vehicle>
<vehicle id="269" depart="269">
    <route edges="bend2T-intersection_LTL T-intersection2SEB"/>
</vehicle>
<vehicle id="262" depart="262">
    <route edges="four-arm2incoming"/>
</vehicle>
<vehicle id="169" depart="169">
    <route edges="NEB2incoming_LTL incoming2four-arm_LTL four-arm2bend"/>
</vehicle>
<vehicle id="22" depart="22">
    <route edges="NWB2four-arm_LTL four-arm2incoming"/>
</vehicle>
<vehicle id="147" depart="147">
    <route edges="EB2incoming incoming2four-arm_LTL four-arm2WB"/>
</vehicle>
<vehicle id="38" depart="38">
    <route edges="EB2incoming incoming2four-arm_LTL"/>
</vehicle>
<vehicle id="98" depart="98">
    <route edges="four-arm2bend bend2T-intersection_LTL T-intersection2incoming_LTL incoming2EB"/>
</vehicle>
<vehicle id="40" depart="40">
    <route edges="SEB2T-intersection T-intersection2incoming_LTL incoming2four-arm_LTL four-arm2WB"/>
</vehicle>
<vehicle id="140" depart="140" type="Ambulance">
    <route edges="SEB2T-intersection T-intersection2incoming_LTL incoming2four-arm_LTL"/>
</vehicle>
<vehicle id="38" depart="38" type="PoliceCar">
    <route edges="four-arm2bend"/>
</vehicle>
<vehicle id="240" depart="240">
    <route edges="four-arm2bend bend2T-intersection_LTL T-intersection2incoming_LTL"/>
</vehicle>
<vehicle id="218" depart="218" type="FireTruck">
    <route edges="EB2incoming incoming2four-arm_LTL four-arm2bend"/>
</vehicle>
<vehicle id="40" depart="40" type="PoliceCar">
    <route edges="bend2T-intersection_LTL T-intersection2incoming_LTL"/>
</vehicle>
<vehicle id="67" depart="67">
    <route edges="WB2four-arm_LTL four-arm2bend bend2T-intersection_LTL"/>
</vehicle>
<vehicle id="122" depart="122">
    <route edges="NEB2incoming_LTL incoming2four-arm_LTL four-arm2bend bend2T-intersection_LTL T-intersection2SEB"/>
</vehicle>
<vehicle id="57" depart="57" type="PoliceCar">
    <route edges="incoming2four-arm_LTL four-arm2bend"/>
</vehicle>
<vehicle id="284" depart="284">
    <route edges="WB2four-arm_LTL four-arm2bend"/>
</vehicle>
<vehicle id="14" depart="14">
    <route edges="SEB2T-intersection T-intersection2incoming_LTL incoming2four-arm_LTL four-arm2WB"/>
</vehicle>
<vehicle id="152" depart="152" type="Ambulance">
    <route edges="WB2four-arm_LTL four-arm2bend bend2T-intersection_LTL"/>
</vehicle>
<vehicle id="23" depart="23" type="PoliceCar">
    <route edges="T-intersection2incoming_LTL incoming2four-arm_LTL four-arm2WB"/>
</vehicle>
<vehicle id="165" depart="165">
    <route edges="WB2four-arm_LTL four-arm2NWB"/>
</vehicle>
<vehicle id="85" depart="85">
    <route edges="incoming2four-arm_LTL four-arm2bend"/>
</vehicle>
<vehicle id="173" depart="173" type="Ambulance">
    <route edges="NEB2incoming_LTL incoming2four-arm_LTL four-arm2bend"/>
</vehicle>
<vehicle id="203" depart="203">
    <route edges="NWB2four-arm_LTL four-arm2bend bend2T-intersection_LTL T-intersection2incoming_LTL incoming2four-arm_LTL"/>
</vehicle>
<vehicle id="124" depart="124" type="FireTruck">
    <route edges="bend2T-intersection_LTL T-intersection2incoming_LTL incoming2four-arm_LTL"/>
</vehicle>
<vehicle id="258" depart="258">
    <route edges="bend2T-intersection_LTL T-intersection2incoming_LTL incoming2four-arm_LTL"/>
</vehicle>
<vehicle id="63" depart="63">
    <route edges="WB2four-arm_LTL four-arm2bend bend2T-intersection_LTL"/>
</vehicle>
<vehicle id="63" depart="63">
    <route edges="T-intersection2bend bend2four-arm_LTL four-arm2NWB"/>
</vehicle>
<vehicle id="32" depart="32" type="Ambulance">
    <route edges="EB2incoming incoming2four-arm_LTL"/>
</vehicle>
<vehicle id="194" depart="194">
    <route edges="SEB2T-intersection T-intersection2incoming_LTL incoming2four-arm_LTL four-arm2NWB"/>
</vehicle>
<vehicle id="216" depart="216" type="FireTruck">
    <route edges="four-arm2bend bend2T-intersection_LTL T-intersection2incoming_LTL incoming2four-arm_LTL four-arm2WB"/>
</vehicle>
<vehicle id="245" depart="245" type="FireTruck">
    <route edges="SEB2T-intersection T-intersection2incoming_LTL incoming2four-arm_LTL four-arm2bend bend2T-intersection_LTL"/>
</vehicle>
<vehicle id="40" depart="40" type="PoliceCar">
    <route edges="incoming2four-arm_LTL four-arm2bend bend2T-intersection_LTL T-intersection2incoming_LTL"/>
</vehicle>
<vehicle id="87" depart="87">
    <route edges="SEB2T-intersection T-intersection2incoming_LTL incoming2four-arm_LTL"/>
</vehicle>
<vehicle id="177" depart="177">
    <route edges="NWB2four-arm_LTL four-arm2bend bend2T-intersection_LTL T-intersection2incoming_LTL"/>
</vehicle>
<vehicle id="221" depart="221" type="PoliceCar">
    <route edges="NEB2incoming_LTL incoming2four-arm_LTL"/>
</vehicle>
<vehicle id="117" depart="117">
    <route edges="NEB2incoming_LTL incoming2four-arm_LTL four-arm2bend bend2T-intersection_LTL T-intersection2incoming_LTL"/>
</vehicle>
<vehicle id="141" depart="141">
    <route edges="four-arm2bend bend2T-intersection_LTL T-intersection2incoming_LTL incoming2EB"/>
</vehicle>
<vehicle id="178" depart="178" type="Ambulance">
    <route edges="SEB2T-intersection T-intersection2bend bend2four-arm_LTL"/>
</vehicle>
<vehicle id="118" depart="118">
    <route edges="bend2T-intersection_LTL T-intersection2SEB"/>
</vehicle>
<vehicle id="204" depart="204" type="FireTruck">
    <route edges="incoming2four-arm_LTL four-arm2NWB"/>
</vehicle>
<vehicle id="256" depart="256">
    <route edges="T-intersection2bend bend2four-arm_LTL four-arm2NWB"/>
</vehicle>
<vehicle id="78" depart="78" type="FireTruck">
    <route edges="bend2T-intersection_LTL T-intersection2incoming_LTL incoming2four-arm_LTL"/>
</vehicle>
<vehicle id="270" depart="270" type="PoliceCar">
    <route edges="SEB2T-intersection T-intersection2incoming_LTL incoming2four-arm_LTL four-arm2bend"/>
</vehicle>
<vehicle id="236" depart="236">
    <route edges="T-intersection2incoming_LTL incoming2four-arm_LTL"/>
</vehicle>
<vehicle id="272" depart="272">
    <route edges="NEB2incoming_LTL incoming2four-arm_LTL four-arm2bend"/>
</vehicle>
<vehicle id="243" depart="243">
    <route edges="NEB2incoming_LTL incoming2four-arm_LTL four-arm2NWB"/>
</vehicle>
<vehicle id="115" depart="115">
    <route edges="four-arm2bend bend2T-intersection_LTL T-intersection2incoming_LTL"/>
</vehicle>
<vehicle id="122" depart="122" type="FireTruck">
    <route edges="WB2four-arm_LTL four-arm2bend bend2T-intersection_LTL T-intersection2incoming_LTL"/>
</vehicle>
<vehicle id="246" depart="246">
    <route edges="SEB2T-intersection T-intersection2incoming_LTL incoming2four-arm_LTL four-arm2bend bend2T-intersection_LTL"/>
</vehicle>
<vehicle id="246" depart="246" type="FireTruck">
    <route edges="T-intersection2incoming_LTL incoming2four-arm_LTL four-arm2NWB"/>
</vehicle>
<vehicle id="105" depart="105" type="PoliceCar">
    <route edges="T-intersection2incoming_LTL incoming2four-arm_LTL four-arm2WB"/>
</vehicle>
<vehicle id="183" depart="183" type="Ambulance">
    <route edges="NWB2four-arm_LTL four-arm2bend bend2T-intersection_LTL T-intersection2incoming_LTL"/>
</vehicle>
<vehicle id="154" depart="154">
    <route edges="SEB2T-intersection T-intersection2incoming_LTL incoming2four-arm_LTL four-arm2bend bend2T-intersection_LTL"/>
</vehicle>
<vehicle id="249" depart="249">
    <route edges="NWB2four-arm_LTL four-arm2incoming"/>
</vehicle>
<vehicle id="131" depart="131">
    <route edges="NWB2four-arm_LTL four-arm2incoming"/>
</vehicle>
<vehicle id="154" depart="154">
    <route edges="four-arm2bend bend2T-intersection_LTL T-intersection2incoming_LTL incoming2four-arm_LTL four-arm2WB"/>
</vehicle>
<vehicle id="114" depart="114" type="Ambulance">
    <route edges="EB2incoming incoming2four-arm_LTL four-arm2WB"/>
</vehicle>
<vehicle id="229" depart="229">
    <route edges="SEB2T-intersection T-intersection2incoming_LTL incoming2four-arm_LTL four-arm2WB"/>
</vehicle>
<vehicle id="13" depart="13" type="PoliceCar">
    <route edges="WB2four-arm_LTL four-arm2NWB"/>
</vehicle>
<vehicle id="149" depart="149">
    <route edges="NEB2incoming_LTL incoming2four-arm_LTL four-arm2bend bend2T-intersection_LTL"/>
</vehicle>
<vehicle id="43" depart="43">
    <route edges="WB2four-arm_LTL four-arm2NWB"/>
</vehicle>
<vehicle id="137" depart="137" type="Ambulance">
    <route edges="incoming2four-arm_LTL four-arm2bend"/>
</vehicle>
<vehicle id="270" depart="270" type="Ambulance">
    <route edges="T-intersection2incoming_LTL incoming2four-arm_LTL four-arm2WB"/>
</vehicle>
<vehicle id="109" depart="109">
    <route edges="NWB2four-arm_LTL four-arm2bend bend2T-intersection_LTL T-intersection2incoming_LTL incoming2four-arm_LTL"/>
</vehicle>
<vehicle id="160" depart="160">
    <route edges="bend2T-intersection_LTL T-intersection2incoming_LTL incoming2EB"/>
</vehicle>
<vehicle id="159" depart="159">
    <route edges="incoming2four-arm_LTL four-arm2bend bend2T-intersection_LTL T-intersection2incoming_LTL"/>
</vehicle>
<vehicle id="130" depart="130">
    <route edges="incoming2four-arm_LTL four-arm2bend bend2T-intersection_LTL"/>
</vehicle>
<vehicle id="103" depart="103">
    <route edges="SEB2T-intersection T-intersection2incoming_LTL incoming2four-arm_LTL four-arm2NWB"/>
</vehicle>
<vehicle id="75" depart="75" type="FireTruck">
    <route edges="WB2four-arm_LTL four-arm2NWB"/>
</vehicle>
<vehicle id="0" depart="0" type="FireTruck">
    <route edges="bend2T-intersection_LTL T-intersection2incoming_LTL incoming2four-arm_LTL four-arm2bend"/>
</vehicle>
<vehicle id="298" depart="298" type="Ambulance">
    <route edges="SEB2T-intersection T-intersection2incoming_LTL incoming2four-arm_LTL four-arm2bend bend2T-intersection_LTL T-intersection2SEB"/>
</vehicle>
<vehicle id="190" depart="190">
    <route edges="T-intersection2incoming_LTL incoming2four-arm_LTL four-arm2WB"/>
</vehicle>
<vehicle id="0" depart="0">
    <route edges="incoming2four-arm_LTL four-arm2bend bend2T-intersection_LTL T-intersection2incoming_LTL incoming2EB"/>
</vehicle>
<vehicle id="139" depart="139">
    <route edges="incoming2four-arm_LTL four-arm2bend bend2T-intersection_LTL T-intersection2SEB"/>
</vehicle>
<vehicle id="173" depart="173">
    <route edges="incoming2four-arm_LTL four-arm2bend bend2T-intersection_LTL T-intersection2incoming_LTL"/>
</vehicle>
<vehicle id="160" depart="160">
    <route edges="incoming2four-arm_LTL four-arm2bend bend2T-intersection_LTL T-intersection2incoming_LTL incoming2EB"/>
</vehicle>
<vehicle id="151" depart="151">
    <route edges="four-arm2bend bend2T-intersection_LTL T-intersection2incoming_LTL"/>
</vehicle>
<vehicle id="115" depart="115" type="FireTruck">
    <route edges="bend2four-arm_LTL four-arm2WB"/>
</vehicle>
<vehicle id="176" depart="176" type="PoliceCar">
    <route edges="bend2T-intersection_LTL T-intersection2incoming_LTL"/>
</vehicle>
<vehicle id="45" depart="45">
    <route edges="NWB2four-arm_LTL four-arm2bend bend2T-intersection_LTL"/>
</vehicle>
<vehicle id="216" depart="216" type="PoliceCar">
    <route edges="WB2four-arm_LTL four-arm2bend bend2T-intersection_LTL T-intersection2incoming_LTL incoming2four-arm_LTL four-arm2WB"/>
</vehicle>
<vehicle id="296" depart="296">
    <route edges="SEB2T-intersection T-intersection2incoming_LTL incoming2four-arm_LTL four-arm2NWB"/>
</vehicle>
<vehicle id="184" depart="184">
    <route edges="four-arm2bend bend2T-intersection_LTL T-intersection2incoming_LTL incoming2four-arm_LTL four-arm2NWB"/>
</vehicle>
<vehicle id="0" depart="0" type="Ambulance">
    <route edges="four-arm2bend bend2T-intersection_LTL T-intersection2incoming_LTL incoming2four-arm_LTL four-arm2WB"/>
</vehicle>
<vehicle id="75" depart="75">
    <route edges="bend2T-intersection_LTL T-intersection2incoming_LTL incoming2four-arm_LTL"/>
</vehicle>
<vehicle id="13" depart="13">
    <route edges="NWB2four-arm_LTL four-arm2bend"/>
</vehicle>
<vehicle id="232" depart="232" type="Ambulance">
    <route edges="SEB2T-intersection T-intersection2bend"/>
</vehicle>
<vehicle id="288" depart="288" type="Ambulance">
    <route edges="SEB2T-intersection T-intersection2incoming_LTL incoming2four-arm_LTL four-arm2bend bend2T-intersection_LTL"/>
</vehicle>
<vehicle id="127" depart="127" type="FireTruck">
    <route edges="four-arm2bend bend2T-intersection_LTL T-intersection2incoming_LTL"/>
</vehicle>
<vehicle id="191" depart="191">
    <route edges="NWB2four-arm_LTL four-arm2bend bend2T-intersection_LTL T-intersection2incoming_LTL incoming2four-arm_LTL"/>
</vehicle>
<vehicle id="229" depart="229">
    <route edges="SEB2T-intersection T-intersection2incoming_LTL incoming2four-arm_LTL four-arm2WB"/>
</vehicle>
<vehicle id="290" depart="290">
    <route edges="NEB2incoming_LTL incoming2four-arm_LTL four-arm2NWB"/>
</vehicle>
<vehicle id="116" depart="116" type="PoliceCar">
    <route edges="NWB2four-arm_LTL four-arm2incoming"/>
</vehicle>
<vehicle id="3" depart="3" type="Ambulance">
    <route edges="SEB2T-intersection T-intersection2incoming_LTL incoming2four-arm_LTL four-arm2bend bend2T-intersection_LTL"/>
</vehicle>
<vehicle id="275" depart="275" type="PoliceCar">
    <route edges="four-arm2bend bend2T-intersection_LTL T-intersection2SEB"/>
</vehicle>
<vehicle id="157" depart="157" type="PoliceCar">
    <route edges="EB2incoming incoming2four-arm_LTL four-arm2NWB"/>
</vehicle>
<vehicle id="80" depart="80" type="FireTruck">
    <route edges="NEB2incoming_LTL incoming2four-arm_LTL four-arm2bend bend2T-intersection_LTL T-intersection2SEB"/>
</vehicle>
<vehicle id="294" depart="294" type="PoliceCar">
    <route edges="four-arm2incoming"/>
</vehicle>
<vehicle id="243" depart="243" type="Ambulance">
    <route edges="EB2incoming incoming2four-arm_LTL four-arm2WB"/>
</vehicle>
<vehicle id="156" depart="156" type="PoliceCar">
    <route edges="NWB2four-arm_LTL four-arm2incoming"/>
</vehicle>
<vehicle id="298" depart="298">
    <route edges="EB2incoming incoming2four-arm_LTL four-arm2bend"/>
</vehicle>
<vehicle id="66" depart="66">
    <route edges="SEB2T-intersection T-intersection2incoming_LTL incoming2four-arm_LTL"/>
</vehicle>
<vehicle id="22" depart="22">
    <route edges="SEB2T-intersection T-intersection2incoming_LTL incoming2EB"/>
</vehicle>
<vehicle id="279" depart="279">
    <route edges="T-intersection2incoming_LTL incoming2four-arm_LTL four-arm2WB"/>
</vehicle>
<vehicle id="298" depart="298">
    <route edges="bend2four-arm_LTL four-arm2WB"/>
</vehicle>
<vehicle id="268" depart="268" type="FireTruck">
    <route edges="NWB2four-arm_LTL four-arm2bend bend2T-intersection_LTL T-intersection2incoming_LTL incoming2four-arm_LTL"/>
</vehicle>
<vehicle id="26" depart="26">
    <route edges="EB2incoming incoming2four-arm_LTL"/>
</vehicle>
<vehicle id="176" depart="176">
    <route edges="bend2T-intersection_LTL T-intersection2incoming_LTL incoming2four-arm_LTL four-arm2WB"/>
</vehicle>
<vehicle id="54" depart="54">
    <route edges="bend2T-intersection_LTL T-intersection2incoming_LTL incoming2four-arm_LTL four-arm2WB"/>
</vehicle>
<vehicle id="27" depart="27">
    <route edges="four-arm2bend bend2T-intersection_LTL T-intersection2incoming_LTL incoming2four-arm_LTL four-arm2WB"/>
</vehicle>
<vehicle id="229" depart="229">
    <route edges="NEB2incoming_LTL incoming2four-arm_LTL four-arm2bend bend2T-intersection_LTL T-intersection2incoming_LTL"/>
</vehicle>
<vehicle id="262" depart="262">
    <route edges="WB2four-arm_LTL four-arm2bend bend2T-intersection_LTL T-intersection2incoming_LTL"/>
</vehicle>
<vehicle id="167" depart="167">
    <route edges="WB2four-arm_LTL four-arm2incoming incoming2EB"/>
</vehicle>
<vehicle id="158" depart="158" type="Ambulance">
    <route edges="SEB2T-intersection T-intersection2incoming_LTL incoming2four-arm_LTL four-arm2WB"/>
</vehicle>
<vehicle id="90" depart="90">
    <route edges="NEB2incoming_LTL incoming2four-arm_LTL four-arm2bend"/>
</vehicle>
<vehicle id="276" depart="276">
    <route edges="SEB2T-intersection T-intersection2incoming_LTL incoming2four-arm_LTL four-arm2NWB"/>
</vehicle>
<vehicle id="159" depart="159">
    <route edges="SEB2T-intersection T-intersection2incoming_LTL incoming2four-arm_LTL four-arm2WB"/>
</vehicle>
<vehicle id="159" depart="159">
    <route edges="EB2incoming incoming2four-arm_LTL four-arm2NWB"/>
</vehicle>
<vehicle id="257" depart="257" type="PoliceCar">
    <route edges="bend2T-intersection_LTL T-intersection2incoming_LTL incoming2four-arm_LTL"/>
</vehicle>
<vehicle id="14" depart="14" type="FireTruck">
    <route edges="T-intersection2incoming_LTL incoming2four-arm_LTL four-arm2WB"/>
</vehicle>
<vehicle id="4" depart="4">
    <route edges="SEB2T-intersection T-intersection2incoming_LTL incoming2four-arm_LTL four-arm2WB"/>
</vehicle>
<vehicle id="162" depart="162" type="FireTruck">
    <route edges="T-intersection2bend bend2four-arm_LTL four-arm2incoming"/>
</vehicle>
<vehicle id="130" depart="130">
    <route edges="SEB2T-intersection T-intersection2incoming_LTL incoming2EB"/>
</vehicle>
<vehicle id="179" depart="179">
    <route edges="bend2T-intersection_LTL T-intersection2incoming_LTL"/>
</vehicle>
<vehicle id="59" depart="59" type="Ambulance">
    <route edges="SEB2T-intersection T-intersection2bend"/>
</vehicle>
<vehicle id="153" depart="153">
    <route edges="SEB2T-intersection T-intersection2bend bend2four-arm_LTL"/>
</vehicle>
<vehicle id="175" depart="175" type="Ambulance">
    <route edges="EB2incoming incoming2four-arm_LTL four-arm2bend bend2T-intersection_LTL"/>
</vehicle>
<vehicle id="35" depart="35">