<?xml version="1.0" encoding="UTF-8"?>

<routes xmlns:xsi="http://www.w3.org/2001/XMLSchema-instance" xsi:noNamespaceSchemaLocation="http://sumo.dlr.de/xsd/routes_file.xsd">

    <!-- Emergency Vehicle Type -->
    <vType id="FireTruck" vClass="emergency" guiShape="firebrigade"/>
    <vType id="Ambulance" vClass="emergency" guiShape="emergency"/>
    <vType id="PoliceCar" vClass="emergency" guiShape="police"/>
<vehicle id="6" depart="6" type="FireTruck">
    <route edges="EB2incoming incoming2four-arm_LTL four-arm2bend"/>
</vehicle>
<vehicle id="8" depart="8">
    <route edges="T-intersection2bend bend2four-arm_LTL four-arm2NWB"/>
</vehicle>
<vehicle id="252" depart="252">
    <route edges="four-arm2bend bend2T-intersection_LTL"/>
</vehicle>
<vehicle id="226" depart="226">
    <route edges="incoming2four-arm_LTL four-arm2bend bend2T-intersection_LTL T-intersection2incoming_LTL"/>
</vehicle>
<vehicle id="137" depart="137">
    <route edges="EB2incoming incoming2four-arm_LTL"/>
</vehicle>
<vehicle id="240" depart="240">
    <route edges="incoming2four-arm_LTL four-arm2WB"/>
</vehicle>
<vehicle id="284" depart="284">
    <route edges="SEB2T-intersection T-intersection2bend bend2four-arm_LTL four-arm2incoming"/>
</vehicle>
<vehicle id="20" depart="20">
    <route edges="incoming2four-arm_LTL four-arm2bend bend2T-intersection_LTL"/>
</vehicle>
<vehicle id="156" depart="156">
    <route edges="EB2incoming incoming2four-arm_LTL four-arm2NWB"/>
</vehicle>
<vehicle id="101" depart="101" type="FireTruck">
    <route edges="bend2T-intersection_LTL T-intersection2incoming_LTL incoming2four-arm_LTL"/>
</vehicle>
<vehicle id="275" depart="275">
    <route edges="four-arm2bend bend2T-intersection_LTL T-intersection2incoming_LTL incoming2EB"/>
</vehicle>
<vehicle id="97" depart="97" type="FireTruck">
    <route edges="bend2T-intersection_LTL T-intersection2incoming_LTL incoming2four-arm_LTL"/>
</vehicle>
<vehicle id="290" depart="290">
    <route edges="WB2four-arm_LTL four-arm2bend bend2T-intersection_LTL T-intersection2SEB"/>
</vehicle>
<vehicle id="68" depart="68">
    <route edges="WB2four-arm_LTL four-arm2bend bend2T-intersection_LTL T-intersection2incoming_LTL"/>
</vehicle>
<vehicle id="270" depart="270" type="Ambulance">
    <route edges="WB2four-arm_LTL four-arm2bend bend2T-intersection_LTL"/>
</vehicle>
<vehicle id="183" depart="183" type="Ambulance">
    <route edges="SEB2T-intersection T-intersection2bend"/>
</vehicle>
<vehicle id="51" depart="51" type="FireTruck">
    <route edges="bend2T-intersection_LTL T-intersection2incoming_LTL incoming2EB"/>
</vehicle>
<vehicle id="162" depart="162" type="FireTruck">
    <route edges="incoming2four-arm_LTL four-arm2bend bend2T-intersection_LTL"/>
</vehicle>
<vehicle id="188" depart="188">
    <route edges="EB2incoming incoming2four-arm_LTL four-arm2bend bend2T-intersection_LTL T-intersection2SEB"/>
</vehicle>
<vehicle id="82" depart="82">
    <route edges="SEB2T-intersection T-intersection2incoming_LTL incoming2four-arm_LTL four-arm2bend"/>
</vehicle>
<vehicle id="17" depart="17">
    <route edges="bend2four-arm_LTL"/>
</vehicle>
<vehicle id="229" depart="229">
    <route edges="T-intersection2bend bend2four-arm_LTL four-arm2incoming incoming2EB"/>
</vehicle>
<vehicle id="256" depart="256" type="Ambulance">
    <route edges="bend2four-arm_LTL four-arm2incoming incoming2EB"/>
</vehicle>
<vehicle id="29" depart="29">
    <route edges="NWB2four-arm_LTL four-arm2bend bend2T-intersection_LTL T-intersection2incoming_LTL incoming2four-arm_LTL four-arm2NWB"/>
</vehicle>
<vehicle id="289" depart="289">
    <route edges="incoming2four-arm_LTL four-arm2bend bend2T-intersection_LTL T-intersection2incoming_LTL"/>
</vehicle>
<vehicle id="143" depart="143">
    <route edges="NWB2four-arm_LTL four-arm2incoming"/>
</vehicle>
<vehicle id="172" depart="172">
    <route edges="four-arm2incoming"/>
</vehicle>
<vehicle id="42" depart="42">
    <route edges="WB2four-arm_LTL four-arm2NWB"/>
</vehicle>
<vehicle id="181" depart="181" type="Ambulance">
    <route edges="EB2incoming incoming2four-arm_LTL four-arm2bend"/>
</vehicle>
<vehicle id="253" depart="253" type="PoliceCar">
    <route edges="SEB2T-intersection T-intersection2incoming_LTL incoming2four-arm_LTL four-arm2bend"/>
</vehicle>
<vehicle id="190" depart="190">
    <route edges="SEB2T-intersection T-intersection2incoming_LTL incoming2four-arm_LTL four-arm2NWB"/>
</vehicle>
<vehicle id="88" depart="88" type="Ambulance">
    <route edges="WB2four-arm_LTL four-arm2bend bend2T-intersection_LTL T-intersection2incoming_LTL"/>
</vehicle>
<vehicle id="46" depart="46">
    <route edges="WB2four-arm_LTL four-arm2bend bend2T-intersection_LTL T-intersection2SEB"/>
</vehicle>
<vehicle id="68" depart="68">
    <route edges="SEB2T-intersection T-intersection2incoming_LTL incoming2four-arm_LTL four-arm2bend"/>
</vehicle>
<vehicle id="191" depart="191">
    <route edges="T-intersection2incoming_LTL incoming2four-arm_LTL four-arm2WB"/>
</vehicle>
<vehicle id="122" depart="122" type="FireTruck">
    <route edges="bend2four-arm_LTL four-arm2incoming"/>
</vehicle>
<vehicle id="111" depart="111" type="PoliceCar">
    <route edges="incoming2four-arm_LTL four-arm2bend"/>
</vehicle>
<vehicle id="100" depart="100" type="Ambulance">
    <route edges="SEB2T-intersection T-intersection2incoming_LTL incoming2four-arm_LTL four-arm2bend bend2T-intersection_LTL T-intersection2SEB"/>
</vehicle>
<vehicle id="287" depart="287">
    <route edges="T-intersection2incoming_LTL"/>
</vehicle>
<vehicle id="192" depart="192" type="FireTruck">
    <route edges="bend2four-arm_LTL four-arm2incoming incoming2EB"/>
</vehicle>
<vehicle id="142" depart="142" type="FireTruck">
    <route edges="SEB2T-intersection T-intersection2incoming_LTL incoming2four-arm_LTL"/>
</vehicle>
<vehicle id="75" depart="75">
    <route edges="T-intersection2bend bend2four-arm_LTL four-arm2NWB"/>
</vehicle>
<vehicle id="10" depart="10" type="FireTruck">
    <route edges="incoming2four-arm_LTL four-arm2NWB"/>
</vehicle>
<vehicle id="158" depart="158" type="FireTruck">
    <route edges="SEB2T-intersection T-intersection2bend bend2four-arm_LTL four-arm2incoming"/>
</vehicle>
<vehicle id="241" depart="241" type="FireTruck">
    <route edges="T-intersection2incoming_LTL incoming2four-arm_LTL four-arm2bend bend2T-intersection_LTL"/>
</vehicle>
<vehicle id="25" depart="25">
    <route edges="T-intersection2bend bend2four-arm_LTL four-arm2incoming incoming2EB"/>
</vehicle>
<vehicle id="97" depart="97">
    <route edges="T-intersection2bend bend2four-arm_LTL"/>
</vehicle>
<vehicle id="5" depart="5">
    <route edges="NWB2four-arm_LTL four-arm2bend"/>
</vehicle>
<vehicle id="254" depart="254">
    <route edges="NEB2incoming_LTL incoming2four-arm_LTL"/>
</vehicle>
<vehicle id="223" depart="223" type="Ambulance">
    <route edges="bend2T-intersection_LTL T-intersection2incoming_LTL incoming2EB"/>
</vehicle>
<vehicle id="43" depart="43">
    <route edges="T-intersection2bend bend2four-arm_LTL four-arm2NWB"/>
</vehicle>
<vehicle id="212" depart="212" type="FireTruck">
    <route edges="SEB2T-intersection T-intersection2incoming_LTL incoming2four-arm_LTL four-arm2NWB"/>
</vehicle>
<vehicle id="291" depart="291">
    <route edges="WB2four-arm_LTL four-arm2incoming incoming2EB"/>
</vehicle>
<vehicle id="53" depart="53" type="PoliceCar">
    <route edges="EB2incoming incoming2four-arm_LTL four-arm2WB"/>
</vehicle>
<vehicle id="178" depart="178" type="PoliceCar">
    <route edges="NEB2incoming_LTL incoming2four-arm_LTL"/>
</vehicle>
<vehicle id="111" depart="111" type="PoliceCar">
    <route edges="NWB2four-arm_LTL four-arm2bend bend2T-intersection_LTL T-intersection2SEB"/>
</vehicle>
<vehicle id="173" depart="173" type="FireTruck">
    <route edges="incoming2four-arm_LTL four-arm2bend"/>
</vehicle>
<vehicle id="284" depart="284" type="Ambulance">
    <route edges="NEB2incoming_LTL incoming2four-arm_LTL four-arm2bend bend2T-intersection_LTL"/>
</vehicle>
<vehicle id="271" depart="271">
    <route edges="four-arm2bend bend2T-intersection_LTL T-intersection2SEB"/>
</vehicle>
<vehicle id="276" depart="276">
    <route edges="SEB2T-intersection T-intersection2incoming_LTL incoming2four-arm_LTL four-arm2WB"/>
</vehicle>
<vehicle id="170" depart="170">
    <route edges="incoming2four-arm_LTL four-arm2bend bend2T-intersection_LTL T-intersection2SEB"/>
</vehicle>
<vehicle id="201" depart="201" type="FireTruck">
    <route edges="T-intersection2bend bend2four-arm_LTL four-arm2incoming"/>
</vehicle>
<vehicle id="252" depart="252">
    <route edges="four-arm2bend bend2T-intersection_LTL T-intersection2incoming_LTL"/>
</vehicle>
<vehicle id="100" depart="100" type="PoliceCar">
    <route edges="WB2four-arm_LTL four-arm2bend bend2T-intersection_LTL T-intersection2incoming_LTL"/>
</vehicle>
<vehicle id="221" depart="221" type="PoliceCar">
    <route edges="EB2incoming incoming2four-arm_LTL four-arm2bend"/>
</vehicle>
<vehicle id="55" depart="55">
    <route edges="four-arm2bend bend2T-intersection_LTL T-intersection2incoming_LTL incoming2EB"/>
</vehicle>
<vehicle id="143" depart="143" type="FireTruck">
    <route edges="incoming2four-arm_LTL four-arm2bend bend2T-intersection_LTL T-intersection2incoming_LTL"/>
</vehicle>
<vehicle id="291" depart="291" type="Ambulance">
    <route edges="T-intersection2incoming_LTL incoming2four-arm_LTL four-arm2bend bend2T-intersection_LTL"/>
</vehicle>
<vehicle id="108" depart="108">
    <route edges="bend2four-arm_LTL"/>
</vehicle>
<vehicle id="275" depart="275" type="FireTruck">
    <route edges="incoming2four-arm_LTL four-arm2bend bend2T-intersection_LTL T-intersection2incoming_LTL"/>
</vehicle>
<vehicle id="181" depart="181" type="PoliceCar">
    <route edges="SEB2T-intersection T-intersection2incoming_LTL incoming2four-arm_LTL"/>
</vehicle>
<vehicle id="87" depart="87">
    <route edges="T-intersection2incoming_LTL incoming2EB"/>
</vehicle>
<vehicle id="208" depart="208">
    <route edges="SEB2T-intersection T-intersection2incoming_LTL incoming2four-arm_LTL four-arm2WB"/>
</vehicle>
<vehicle id="145" depart="145" type="FireTruck">
    <route edges="incoming2four-arm_LTL four-arm2bend bend2T-intersection_LTL T-intersection2incoming_LTL"/>
</vehicle>
<vehicle id="209" depart="209" type="FireTruck">
    <route edges="WB2four-arm_LTL four-arm2incoming"/>
</vehicle>
<vehicle id="145" depart="145">
    <route edges="WB2four-arm_LTL four-arm2bend bend2T-intersection_LTL"/>
</vehicle>
<vehicle id="7" depart="7" type="PoliceCar">
    <route edges="incoming2four-arm_LTL four-arm2bend bend2T-intersection_LTL T-intersection2incoming_LTL incoming2EB"/>
</vehicle>
<vehicle id="176" depart="176" type="FireTruck">
    <route edges="SEB2T-intersection T-intersection2incoming_LTL incoming2four-arm_LTL four-arm2WB"/>
</vehicle>
<vehicle id="224" depart="224" type="PoliceCar">
    <route edges="incoming2four-arm_LTL four-arm2NWB"/>
</vehicle>
<vehicle id="19" depart="19" type="PoliceCar">
    <route edges="T-intersection2bend bend2four-arm_LTL four-arm2NWB"/>
</vehicle>
<vehicle id="177" depart="177" type="Ambulance">
    <route edges="four-arm2bend bend2T-intersection_LTL"/>
</vehicle>
<vehicle id="61" depart="61">
    <route edges="four-arm2bend bend2T-intersection_LTL T-intersection2incoming_LTL incoming2four-arm_LTL four-arm2WB"/>
</vehicle>
<vehicle id="95" depart="95" type="FireTruck">
    <route edges="incoming2four-arm_LTL four-arm2bend"/>
</vehicle>
<vehicle id="249" depart="249" type="Ambulance">
    <route edges="WB2four-arm_LTL four-arm2bend bend2T-intersection_LTL"/>
</vehicle>
<vehicle id="170" depart="170" type="PoliceCar">
    <route edges="four-arm2bend bend2T-intersection_LTL T-intersection2incoming_LTL incoming2EB"/>
</vehicle>
<vehicle id="163" depart="163" type="FireTruck">
    <route edges="T-intersection2incoming_LTL incoming2EB"/>
</vehicle>
<vehicle id="247" depart="247" type="FireTruck">
    <route edges="bend2four-arm_LTL four-arm2incoming"/>
</vehicle>
<vehicle id="293" depart="293">
    <route edges="four-arm2bend bend2T-intersection_LTL T-intersection2incoming_LTL"/>
</vehicle>
<vehicle id="122" depart="122" type="Ambulance">
    <route edges="T-intersection2incoming_LTL incoming2four-arm_LTL four-arm2bend bend2T-intersection_LTL"/>
</vehicle>
<vehicle id="82" depart="82">
    <route edges="bend2T-intersection_LTL T-intersection2incoming_LTL incoming2four-arm_LTL four-arm2WB"/>
</vehicle>
<vehicle id="236" depart="236" type="FireTruck">
    <route edges="NWB2four-arm_LTL four-arm2bend bend2T-intersection_LTL"/>
</vehicle>
<vehicle id="44" depart="44">
    <route edges="WB2four-arm_LTL four-arm2bend bend2T-intersection_LTL"/>
</vehicle>
<vehicle id="25" depart="25">
    <route edges="NEB2incoming_LTL incoming2four-arm_LTL four-arm2bend bend2T-intersection_LTL T-intersection2SEB"/>
</vehicle>
<vehicle id="187" depart="187">
    <route edges="EB2incoming incoming2four-arm_LTL"/>
</vehicle>
<vehicle id="30" depart="30" type="FireTruck">
    <route edges="bend2T-intersection_LTL T-intersection2incoming_LTL"/>
</vehicle>
<vehicle id="44" depart="44" type="FireTruck">
    <route edges="NEB2incoming_LTL incoming2four-arm_LTL four-arm2bend"/>
</vehicle>
<vehicle id="136" depart="136">
    <route edges="SEB2T-intersection T-intersection2bend bend2four-arm_LTL"/>
</vehicle>
<vehicle id="217" depart="217" type="Ambulance">
    <route edges="NWB2four-arm_LTL four-arm2bend bend2T-intersection_LTL T-intersection2incoming_LTL incoming2four-arm_LTL"/>
</vehicle>
<vehicle id="155" depart="155" type="Ambulance">
    <route edges="EB2incoming incoming2four-arm_LTL four-arm2bend bend2T-intersection_LTL T-intersection2incoming_LTL incoming2EB"/>
</vehicle>
<vehicle id="207" depart="207">
    <route edges="T-intersection2incoming_LTL incoming2four-arm_LTL four-arm2bend bend2T-intersection_LTL T-intersection2SEB"/>
</vehicle>
<vehicle id="139" depart="139" type="FireTruck">
    <route edges="bend2T-intersection_LTL T-intersection2incoming_LTL incoming2four-arm_LTL four-arm2NWB"/>
</vehicle>
<vehicle id="39" depart="39">
    <route edges="T-intersection2incoming_LTL incoming2four-arm_LTL four-arm2bend bend2T-intersection_LTL"/>
</vehicle>
<vehicle id="58" depart="58" type="PoliceCar">
    <route edges="bend2T-intersection_LTL T-intersection2incoming_LTL incoming2four-arm_LTL four-arm2bend"/>
</vehicle>
<vehicle id="289" depart="289" type="Ambulance">
    <route edges="NWB2four-arm_LTL four-arm2bend bend2T-intersection_LTL T-intersection2incoming_LTL incoming2four-arm_LTL four-arm2NWB"/>
</vehicle>
<vehicle id="144" depart="144">
    <route edges="WB2four-arm_LTL four-arm2NWB"/>
</vehicle>
<vehicle id="269" depart="269" type="FireTruck">
    <route edges="WB2four-arm_LTL four-arm2bend bend2T-intersection_LTL T-intersection2incoming_LTL"/>
</vehicle>
<vehicle id="41" depart="41">
    <route edges="four-arm2bend bend2T-intersection_LTL T-intersection2incoming_LTL incoming2four-arm_LTL four-arm2WB"/>
</vehicle>
<vehicle id="232" depart="232">
    <route edges="four-arm2bend bend2T-intersection_LTL T-intersection2incoming_LTL incoming2four-arm_LTL"/>
</vehicle>
<vehicle id="199" depart="199">
    <route edges="T-intersection2bend bend2four-arm_LTL four-arm2NWB"/>
</vehicle>
<vehicle id="43" depart="43">
    <route edges="SEB2T-intersection T-intersection2incoming_LTL incoming2four-arm_LTL four-arm2bend bend2T-intersection_LTL T-intersection2SEB"/>
</vehicle>
<vehicle id="208" depart="208" type="Ambulance">
    <route edges="EB2incoming incoming2four-arm_LTL four-arm2bend"/>
</vehicle>
<vehicle id="286" depart="286" type="Ambulance">
    <route edges="incoming2four-arm_LTL four-arm2bend"/>
</vehicle>
<vehicle id="92" depart="92">
    <route edges="T-intersection2bend bend2four-arm_LTL four-arm2incoming incoming2EB"/>
</vehicle>
<vehicle id="52" depart="52" type="FireTruck">
    <route edges="WB2four-arm_LTL four-arm2incoming incoming2EB"/>
</vehicle>
<vehicle id="7" depart="7">
    <route edges="four-arm2bend bend2T-intersection_LTL"/>
</vehicle>
<vehicle id="61" depart="61" type="Ambulance">
    <route edges="T-intersection2incoming_LTL incoming2four-arm_LTL four-arm2bend"/>
</vehicle>
<vehicle id="54" depart="54">
    <route edges="SEB2T-intersection T-intersection2incoming_LTL"/>
</vehicle>
<vehicle id="80" depart="80">
    <route edges="four-arm2incoming incoming2EB"/>
</vehicle>
<vehicle id="166" depart="166" type="Ambulance">
    <route edges="incoming2four-arm_LTL four-arm2bend"/>
</vehicle>
<vehicle id="298" depart="298" type="Ambulance">
    <route edges="bend2four-arm_LTL four-arm2incoming incoming2EB"/>
</vehicle>
<vehicle id="282" depart="282" type="PoliceCar">
    <route edges="WB2four-arm_LTL four-arm2bend bend2T-intersection_LTL"/>
</vehicle>
<vehicle id="36" depart="36" type="PoliceCar">
    <route edges="bend2T-intersection_LTL T-intersection2SEB"/>
</vehicle>
<vehicle id="223" depart="223" type="FireTruck">
    <route edges="T-intersection2incoming_LTL incoming2four-arm_LTL four-arm2WB"/>
</vehicle>
<vehicle id="171" depart="171" type="PoliceCar">
    <route edges="bend2T-intersection_LTL T-intersection2incoming_LTL incoming2four-arm_LTL"/>
</vehicle>
<vehicle id="259" depart="259">
    <route edges="bend2four-arm_LTL four-arm2incoming"/>
</vehicle>
<vehicle id="123" depart="123">
    <route edges="EB2incoming incoming2four-arm_LTL four-arm2bend bend2T-intersection_LTL T-intersection2SEB"/>
</vehicle>
<vehicle id="185" depart="185">
    <route edges="four-arm2bend bend2T-intersection_LTL T-intersection2incoming_LTL incoming2EB"/>
</vehicle>
<vehicle id="113" depart="113" type="FireTruck">
    <route edges="incoming2four-arm_LTL four-arm2bend bend2T-intersection_LTL"/>
</vehicle>
<vehicle id="36" depart="36">
    <route edges="WB2four-arm_LTL four-arm2bend bend2T-intersection_LTL"/>
</vehicle>
<vehicle id="255" depart="255" type="Ambulance">
    <route edges="NEB2incoming_LTL incoming2four-arm_LTL four-arm2bend bend2T-intersection_LTL"/>
</vehicle>
<vehicle id="233" depart="233">
    <route edges="T-intersection2incoming_LTL incoming2EB"/>
</vehicle>
<vehicle id="28" depart="28" type="PoliceCar">
    <route edges="WB2four-arm_LTL four-arm2bend"/>
</vehicle>
<vehicle id="292" depart="292" type="PoliceCar">
    <route edges="SEB2T-intersection T-intersection2incoming_LTL incoming2four-arm_LTL four-arm2NWB"/>
</vehicle>
<vehicle id="240" depart="240">
    <route edges="four-arm2bend bend2T-intersection_LTL T-intersection2SEB"/>
</vehicle>
<vehicle id="29" depart="29" type="Ambulance">
    <route edges="WB2four-arm_LTL four-arm2bend bend2T-intersection_LTL T-intersection2incoming_LTL"/>
</vehicle>
<vehicle id="220" depart="220">
    <route edges="EB2incoming incoming2four-arm_LTL four-arm2WB"/>
</vehicle>
<vehicle id="273" depart="273">
    <route edges="NEB2incoming_LTL incoming2four-arm_LTL four-arm2bend"/>
</vehicle>
<vehicle id="117" depart="117">
    <route edges="four-arm2bend bend2T-intersection_LTL T-intersection2incoming_LTL incoming2EB"/>
</vehicle>
<vehicle id="29" depart="29">
    <route edges="bend2four-arm_LTL four-arm2WB"/>
</vehicle>
<vehicle id="206" depart="206">
    <route edges="bend2T-intersection_LTL T-intersection2SEB"/>
</vehicle>
<vehicle id="165" depart="165" type="PoliceCar">
    <route edges="four-arm2bend bend2T-intersection_LTL T-intersection2incoming_LTL incoming2four-arm_LTL"/>
</vehicle>
<vehicle id="186" depart="186" type="PoliceCar">
    <route edges="bend2T-intersection_LTL T-intersection2incoming_LTL incoming2four-arm_LTL four-arm2NWB"/>
</vehicle>
<vehicle id="199" depart="199">
    <route edges="T-intersection2incoming_LTL"/>
</vehicle>
<vehicle id="231" depart="231" type="PoliceCar">
    <route edges="WB2four-arm_LTL four-arm2incoming"/>
</vehicle>
<vehicle id="106" depart="106">
    <route edges="T-intersection2incoming_LTL incoming2four-arm_LTL four-arm2bend bend2T-intersection_LTL"/>
</vehicle>
<vehicle id="114" depart="114" type="Ambulance">
    <route edges="SEB2T-intersection T-intersection2incoming_LTL incoming2four-arm_LTL four-arm2WB"/>
</vehicle>
<vehicle id="48" depart="48">
    <route edges="T-intersection2incoming_LTL incoming2four-arm_LTL four-arm2NWB"/>
</vehicle>
<vehicle id="180" depart="180">
    <route edges="WB2four-arm_LTL four-arm2bend bend2T-intersection_LTL"/>
</vehicle>
<vehicle id="98" depart="98">
    <route edges="SEB2T-intersection T-intersection2bend bend2four-arm_LTL"/>
</vehicle>
<vehicle id="54" depart="54" type="Ambulance">
    <route edges="SEB2T-intersection T-intersection2incoming_LTL incoming2four-arm_LTL four-arm2bend bend2T-intersection_LTL"/>
</vehicle>
<vehicle id="26" depart="26" type="FireTruck">
    <route edges="T-intersection2bend bend2four-arm_LTL four-arm2NWB"/>
</vehicle>
<vehicle id="225" depart="225" type="FireTruck">
    <route edges="EB2incoming incoming2four-arm_LTL four-arm2WB"/>
</vehicle>
<vehicle id="173" depart="173" type="PoliceCar">
    <route edges="T-intersection2incoming_LTL incoming2four-arm_LTL four-arm2bend bend2T-intersection_LTL T-intersection2SEB"/>
</vehicle>
<vehicle id="160" depart="160">
    <route edges="four-arm2bend bend2T-intersection_LTL T-intersection2incoming_LTL"/>
</vehicle>
<vehicle id="259" depart="259" type="Ambulance">
    <route edges="WB2four-arm_LTL four-arm2bend bend2T-intersection_LTL"/>
</vehicle>
<vehicle id="237" depart="237" type="FireTruck">
    <route edges="NWB2four-arm_LTL four-arm2bend bend2T-intersection_LTL T-intersection2incoming_LTL incoming2four-arm_LTL four-arm2NWB"/>
</vehicle>
<vehicle id="108" depart="108" type="PoliceCar">
    <route edges="four-arm2bend bend2T-intersection_LTL T-intersection2incoming_LTL incoming2EB"/>
</vehicle>
<vehicle id="277" depart="277">
    <route edges="bend2four-arm_LTL"/>
</vehicle>
<vehicle id="182" depart="182">
    <route edges="incoming2four-arm_LTL four-arm2bend bend2T-intersection_LTL T-intersection2incoming_LTL"/>
</vehicle>
<vehicle id="113" depart="113">
    <route edges="incoming2four-arm_LTL four-arm2bend bend2T-intersection_LTL T-intersection2SEB"/>
</vehicle>
<vehicle id="67" depart="67">
    <route edges="SEB2T-intersection T-intersection2incoming_LTL incoming2four-arm_LTL"/>
</vehicle>
<vehicle id="109" depart="109">
    <route edges="T-intersection2bend bend2four-arm_LTL four-arm2WB"/>
</vehicle>
</routes>
