<configuration>
    <input>
        <net-file value="simpleNetwork.net.xml"/>
        <route-files value="routes50_3.rou.xml"/>
    </input>

    <time>
        <begin value="0"/>
    </time>

</configuration>