<?xml version="1.0" encoding="UTF-8"?>


<routes  xmlns:xsi="http://www.w3.org/2001/XMLSchema-instance" xsi:noNamespaceSchemaLocation="http://sumo.dlr.de/xsd/routes_file.xsd">
    <vehicle id="7" depart="0.00">
        <route edges="WB2four-arm_LTL four-arm2bend"/>
    </vehicle>
    <vehicle id="2" depart="2.00">
        <route edges="NWB2four-arm_LTL four-arm2incoming"/>
    </vehicle>
    <vehicle id="4" depart="4.00">
        <route edges="bend2T-intersection_LTL T-intersection2SEB"/>
    </vehicle>
    <vehicle id="15" depart="5.00">
        <route edges="incoming2four-arm_LTL four-arm2bend bend2T-intersection_LTL T-intersection2incoming_LTL incoming2EB"/>
    </vehicle>
    <vehicle id="13" depart="8.00">
        <route edges="NWB2four-arm_LTL four-arm2bend bend2T-intersection_LTL T-intersection2incoming_LTL"/>
    </vehicle>
    <vehicle id="8" depart="8.00">
        <route edges="SEB2T-intersection T-intersection2bend bend2four-arm_LTL four-arm2incoming"/>
    </vehicle>
    <vehicle id="11" depart="11.00">
        <route edges="WB2four-arm_LTL four-arm2bend bend2T-intersection_LTL"/>
    </vehicle>
    <vehicle id="12" depart="12.00">
        <route edges="NEB2incoming_LTL incoming2four-arm_LTL"/>
    </vehicle>
    <vehicle id="5" depart="13.00">
        <route edges="EB2incoming incoming2four-arm_LTL four-arm2bend bend2T-intersection_LTL T-intersection2SEB"/>
    </vehicle>
    <vehicle id="14" depart="14.00">
        <route edges="bend2T-intersection_LTL T-intersection2incoming_LTL incoming2four-arm_LTL four-arm2NWB"/>
    </vehicle>
    <vehicle id="16" depart="16.00">
        <route edges="WB2four-arm_LTL four-arm2NWB"/>
    </vehicle>
    <vehicle id="9" depart="17.00">
        <route edges="NEB2incoming_LTL incoming2four-arm_LTL four-arm2bend bend2T-intersection_LTL T-intersection2SEB"/>
    </vehicle>
    <vehicle id="18" depart="18.00">
        <route edges="bend2T-intersection_LTL T-intersection2incoming_LTL incoming2four-arm_LTL"/>
    </vehicle>
    <vehicle id="30" depart="20.00">
        <route edges="WB2four-arm_LTL four-arm2bend"/>
    </vehicle>
    <vehicle id="20" depart="21.00">
        <route edges="T-intersection2incoming_LTL incoming2four-arm_LTL four-arm2bend"/>
    </vehicle>
    <vehicle id="19" depart="24.00">
        <route edges="WB2four-arm_LTL four-arm2bend bend2T-intersection_LTL T-intersection2incoming_LTL incoming2four-arm_LTL four-arm2WB"/>
    </vehicle>
    <vehicle id="29" depart="25.00">
        <route edges="four-arm2bend bend2T-intersection_LTL T-intersection2incoming_LTL incoming2EB"/>
    </vehicle>
    <vehicle id="25" depart="26.00">
        <route edges="NWB2four-arm_LTL four-arm2incoming"/>
    </vehicle>
    <vehicle id="27" depart="28.00">
        <route edges="NEB2incoming_LTL incoming2four-arm_LTL four-arm2bend bend2T-intersection_LTL T-intersection2SEB"/>
    </vehicle>
    <vehicle id="26" depart="28.00">
        <route edges="bend2T-intersection_LTL T-intersection2incoming_LTL incoming2four-arm_LTL four-arm2NWB"/>
    </vehicle>
    <vehicle id="35" depart="30.00">
        <route edges="EB2incoming incoming2four-arm_LTL four-arm2NWB"/>
    </vehicle>
    <vehicle id="31" depart="31.00">
        <route edges="NEB2incoming_LTL incoming2four-arm_LTL four-arm2bend bend2T-intersection_LTL T-intersection2incoming_LTL"/>
    </vehicle>
    <vehicle id="32" depart="32.00">
        <route edges="NWB2four-arm_LTL four-arm2bend bend2T-intersection_LTL T-intersection2incoming_LTL incoming2four-arm_LTL four-arm2NWB"/>
    </vehicle>
    <vehicle id="33" depart="33.00">
        <route edges="T-intersection2bend"/>
    </vehicle>
    <vehicle id="34" depart="34.00">
        <route edges="incoming2four-arm_LTL"/>
    </vehicle>
    <vehicle id="28" depart="37.00">
        <route edges="T-intersection2incoming_LTL incoming2four-arm_LTL four-arm2bend bend2T-intersection_LTL"/>
    </vehicle>
    <vehicle id="38" depart="38.00">
        <route edges="SEB2T-intersection T-intersection2incoming_LTL"/>
    </vehicle>
    <vehicle id="39" depart="39.00">
        <route edges="T-intersection2bend bend2four-arm_LTL four-arm2WB"/>
    </vehicle>
    <vehicle id="50" depart="40.00">
        <route edges="NEB2incoming_LTL incoming2EB"/>
    </vehicle>
    <vehicle id="40" depart="40.00">
        <route edges="T-intersection2bend bend2four-arm_LTL four-arm2WB"/>
    </vehicle>
    <vehicle id="48" depart="41.00">
        <route edges="NEB2incoming_LTL incoming2EB"/>
    </vehicle>
    <vehicle id="42" depart="41.00">
        <route edges="four-arm2bend bend2T-intersection_LTL T-intersection2incoming_LTL incoming2four-arm_LTL"/>
    </vehicle>
    <vehicle id="43" depart="43.00">
        <route edges="WB2four-arm_LTL four-arm2bend bend2T-intersection_LTL"/>
    </vehicle>
    <vehicle id="45" depart="45.00">
        <route edges="four-arm2bend bend2T-intersection_LTL T-intersection2incoming_LTL incoming2four-arm_LTL"/>
    </vehicle>
    <vehicle id="47" depart="47.00">
        <route edges="NEB2incoming_LTL incoming2four-arm_LTL four-arm2NWB"/>
    </vehicle>
    <vehicle id="44" depart="47.00">
        <route edges="bend2T-intersection_LTL T-intersection2incoming_LTL incoming2four-arm_LTL"/>
    </vehicle>
    <vehicle id="52" depart="47.00">
        <route edges="four-arm2incoming"/>
    </vehicle>
    <vehicle id="51" depart="51.00">
        <route edges="NEB2incoming_LTL incoming2four-arm_LTL four-arm2NWB"/>
    </vehicle>
    <vehicle id="60" depart="51.00">
        <route edges="SEB2T-intersection T-intersection2incoming_LTL"/>
    </vehicle>
    <vehicle id="62" depart="52.00">
        <route edges="EB2incoming incoming2four-arm_LTL four-arm2bend"/>
    </vehicle>
    <vehicle id="49" depart="52.00">
        <route edges="SEB2T-intersection T-intersection2incoming_LTL incoming2EB"/>
    </vehicle>
    <vehicle id="55" depart="53.00">
        <route edges="T-intersection2bend bend2four-arm_LTL four-arm2incoming"/>
    </vehicle>
    <vehicle id="61" depart="53.00">
        <route edges="T-intersection2incoming_LTL"/>
    </vehicle>
    <vehicle id="53" depart="53.00">
        <route edges="WB2four-arm_LTL four-arm2incoming incoming2EB"/>
    </vehicle>
    <vehicle id="56" depart="56.00">
        <route edges="T-intersection2bend bend2four-arm_LTL four-arm2NWB"/>
    </vehicle>
    <vehicle id="65" depart="56.00">
        <route edges="four-arm2bend"/>
    </vehicle>
    <vehicle id="57" depart="57.00">
        <route edges="bend2four-arm_LTL four-arm2incoming"/>
    </vehicle>
    <vehicle id="59" depart="59.00">
        <route edges="four-arm2bend bend2T-intersection_LTL T-intersection2incoming_LTL incoming2EB"/>
    </vehicle>
    <vehicle id="69" depart="64.00">
        <route edges="WB2four-arm_LTL four-arm2bend bend2T-intersection_LTL T-intersection2incoming_LTL incoming2four-arm_LTL"/>
    </vehicle>
    <vehicle id="54" depart="64.00">
        <route edges="bend2T-intersection_LTL T-intersection2incoming_LTL incoming2four-arm_LTL four-arm2WB"/>
    </vehicle>
    <vehicle id="66" depart="66.00">
        <route edges="bend2T-intersection_LTL T-intersection2incoming_LTL incoming2four-arm_LTL four-arm2bend"/>
    </vehicle>
    <vehicle id="64" depart="67.00">
        <route edges="T-intersection2bend"/>
    </vehicle>
    <vehicle id="67" depart="67.00">
        <route edges="T-intersection2incoming_LTL incoming2four-arm_LTL four-arm2WB"/>
    </vehicle>
    <vehicle id="77" depart="68.00">
        <route edges="bend2four-arm_LTL four-arm2WB"/>
    </vehicle>
    <vehicle id="70" depart="70.00">
        <route edges="incoming2four-arm_LTL four-arm2bend bend2T-intersection_LTL T-intersection2incoming_LTL incoming2EB"/>
    </vehicle>
    <vehicle id="76" depart="70.00">
        <route edges="incoming2four-arm_LTL four-arm2bend bend2T-intersection_LTL T-intersection2incoming_LTL incoming2EB"/>
    </vehicle>
    <vehicle id="71" depart="71.00">
        <route edges="WB2four-arm_LTL four-arm2bend"/>
    </vehicle>
    <vehicle id="72" depart="72.00">
        <route edges="NEB2incoming_LTL incoming2four-arm_LTL"/>
    </vehicle>
    <vehicle id="73" depart="73.00">
        <route edges="T-intersection2incoming_LTL incoming2four-arm_LTL"/>
    </vehicle>
    <vehicle id="84" depart="74.00">
        <route edges="NWB2four-arm_LTL four-arm2incoming incoming2EB"/>
    </vehicle>
    <vehicle id="75" depart="75.00">
        <route edges="four-arm2incoming incoming2EB"/>
    </vehicle>
    <vehicle id="68" depart="78.00">
        <route edges="bend2four-arm_LTL"/>
    </vehicle>
    <vehicle id="80" depart="80.00">
        <route edges="NWB2four-arm_LTL four-arm2incoming"/>
    </vehicle>
    <vehicle id="82" depart="80.00">
        <route edges="SEB2T-intersection T-intersection2bend bend2four-arm_LTL four-arm2incoming"/>
    </vehicle>
    <vehicle id="81" depart="81.00">
        <route edges="EB2incoming incoming2four-arm_LTL four-arm2bend bend2T-intersection_LTL T-intersection2incoming_LTL incoming2EB"/>
    </vehicle>
    <vehicle id="83" depart="83.00">
        <route edges="SEB2T-intersection T-intersection2incoming_LTL incoming2four-arm_LTL four-arm2NWB"/>
    </vehicle>
    <vehicle id="85" depart="85.00">
        <route edges="bend2four-arm_LTL"/>
    </vehicle>
    <vehicle id="86" depart="86.00">
        <route edges="NWB2four-arm_LTL four-arm2bend bend2T-intersection_LTL T-intersection2incoming_LTL incoming2four-arm_LTL"/>
    </vehicle>
    <vehicle id="96" depart="86.00">
        <route edges="T-intersection2bend bend2four-arm_LTL four-arm2incoming"/>
    </vehicle>
    <vehicle id="87" depart="87.00">
        <route edges="SEB2T-intersection T-intersection2bend bend2four-arm_LTL"/>
    </vehicle>
    <vehicle id="88" depart="88.00">
        <route edges="NWB2four-arm_LTL four-arm2bend bend2T-intersection_LTL T-intersection2SEB"/>
    </vehicle>
    <vehicle id="90" depart="89.00">
        <route edges="SEB2T-intersection T-intersection2incoming_LTL"/>
    </vehicle>
    <vehicle id="94" depart="91.00">
        <route edges="SEB2T-intersection T-intersection2bend"/>
    </vehicle>
    <vehicle id="95" depart="92.00">
        <route edges="T-intersection2incoming_LTL incoming2four-arm_LTL four-arm2WB"/>
    </vehicle>
    <vehicle id="92" depart="92.00">
        <route edges="four-arm2bend bend2T-intersection_LTL"/>
    </vehicle>
    <vehicle id="91" depart="97.00">
        <route edges="T-intersection2incoming_LTL incoming2four-arm_LTL"/>
    </vehicle>
    <vehicle id="97" depart="98.00">
        <route edges="WB2four-arm_LTL four-arm2incoming incoming2EB"/>
    </vehicle>
    <vehicle id="98" depart="98.00">
        <route edges="bend2T-intersection_LTL"/>
    </vehicle>
    <vehicle id="99" depart="99.00">
        <route edges="T-intersection2bend bend2four-arm_LTL four-arm2incoming incoming2EB"/>
    </vehicle>
    <vehicle id="109" depart="100.00">
        <route edges="NWB2four-arm_LTL four-arm2bend bend2T-intersection_LTL T-intersection2SEB"/>
    </vehicle>
    <vehicle id="101" depart="101.00">
        <route edges="T-intersection2incoming_LTL incoming2four-arm_LTL four-arm2bend bend2T-intersection_LTL T-intersection2SEB"/>
    </vehicle>
    <vehicle id="103" depart="103.00">
        <route edges="NEB2incoming_LTL incoming2four-arm_LTL four-arm2WB"/>
    </vehicle>
    <vehicle id="106" depart="103.00">
        <route edges="bend2T-intersection_LTL T-intersection2incoming_LTL incoming2EB"/>
    </vehicle>
    <vehicle id="102" depart="104.00">
        <route edges="NWB2four-arm_LTL four-arm2bend"/>
    </vehicle>
    <vehicle id="105" depart="105.00">
        <route edges="NWB2four-arm_LTL four-arm2bend bend2T-intersection_LTL T-intersection2incoming_LTL"/>
    </vehicle>
    <vehicle id="117" depart="107.00">
        <route edges="EB2incoming incoming2four-arm_LTL"/>
    </vehicle>
    <vehicle id="107" depart="107.00">
        <route edges="four-arm2incoming"/>
    </vehicle>
    <vehicle id="116" depart="108.00">
        <route edges="bend2T-intersection_LTL T-intersection2incoming_LTL incoming2four-arm_LTL four-arm2WB"/>
    </vehicle>
    <vehicle id="110" depart="109.00">
        <route edges="SEB2T-intersection T-intersection2incoming_LTL"/>
    </vehicle>
    <vehicle id="104" depart="109.00">
        <route edges="T-intersection2incoming_LTL incoming2four-arm_LTL four-arm2NWB"/>
    </vehicle>
    <vehicle id="111" depart="111.00">
        <route edges="bend2four-arm_LTL"/>
    </vehicle>
    <vehicle id="112" depart="112.00">
        <route edges="EB2incoming incoming2four-arm_LTL four-arm2bend"/>
    </vehicle>
    <vehicle id="108" depart="114.00">
        <route edges="NEB2incoming_LTL incoming2four-arm_LTL four-arm2WB"/>
    </vehicle>
    <vehicle id="114" depart="114.00">
        <route edges="bend2T-intersection_LTL T-intersection2incoming_LTL incoming2four-arm_LTL four-arm2bend"/>
    </vehicle>
    <vehicle id="118" depart="118.00">
        <route edges="SEB2T-intersection T-intersection2incoming_LTL incoming2four-arm_LTL four-arm2bend"/>
    </vehicle>
    <vehicle id="120" depart="120.00">
        <route edges="T-intersection2incoming_LTL incoming2four-arm_LTL four-arm2WB"/>
    </vehicle>
    <vehicle id="121" depart="121.00">
        <route edges="WB2four-arm_LTL four-arm2bend bend2T-intersection_LTL"/>
    </vehicle>
    <vehicle id="123" depart="123.00">
        <route edges="bend2T-intersection_LTL T-intersection2incoming_LTL"/>
    </vehicle>
    <vehicle id="133" depart="125.00">
        <route edges="bend2T-intersection_LTL"/>
    </vehicle>
    <vehicle id="125" depart="125.00">
        <route edges="incoming2four-arm_LTL four-arm2bend bend2T-intersection_LTL T-intersection2SEB"/>
    </vehicle>
    <vehicle id="126" depart="126.00">
        <route edges="bend2four-arm_LTL"/>
    </vehicle>
    <vehicle id="128" depart="128.00">
        <route edges="four-arm2bend bend2T-intersection_LTL T-intersection2incoming_LTL incoming2four-arm_LTL four-arm2NWB"/>
    </vehicle>
    <vehicle id="131" depart="129.00">
        <route edges="SEB2T-intersection T-intersection2bend"/>
    </vehicle>
    <vehicle id="129" depart="129.00">
        <route edges="T-intersection2bend bend2four-arm_LTL four-arm2WB"/>
    </vehicle>
    <vehicle id="132" depart="132.00">
        <route edges="NWB2four-arm_LTL four-arm2incoming incoming2EB"/>
    </vehicle>
    <vehicle id="134" depart="134.00">
        <route edges="T-intersection2bend bend2four-arm_LTL four-arm2WB"/>
    </vehicle>
    <vehicle id="137" depart="137.00">
        <route edges="SEB2T-intersection T-intersection2incoming_LTL incoming2four-arm_LTL four-arm2bend bend2T-intersection_LTL"/>
    </vehicle>
    <vehicle id="136" depart="139.00">
        <route edges="NEB2incoming_LTL incoming2four-arm_LTL four-arm2NWB"/>
    </vehicle>
    <vehicle id="130" depart="139.00">
        <route edges="bend2T-intersection_LTL T-intersection2incoming_LTL incoming2four-arm_LTL"/>
    </vehicle>
    <vehicle id="140" depart="140.00">
        <route edges="T-intersection2incoming_LTL incoming2four-arm_LTL four-arm2bend bend2T-intersection_LTL"/>
    </vehicle>
    <vehicle id="141" depart="141.00">
        <route edges="T-intersection2bend bend2four-arm_LTL four-arm2incoming incoming2EB"/>
    </vehicle>
    <vehicle id="147" depart="143.00">
        <route edges="incoming2four-arm_LTL four-arm2bend bend2T-intersection_LTL T-intersection2incoming_LTL incoming2EB"/>
    </vehicle>
    <vehicle id="145" depart="145.00">
        <route edges="T-intersection2incoming_LTL incoming2four-arm_LTL four-arm2bend bend2T-intersection_LTL T-intersection2SEB"/>
    </vehicle>
    <vehicle id="148" depart="148.00">
        <route edges="WB2four-arm_LTL four-arm2bend bend2T-intersection_LTL T-intersection2SEB"/>
    </vehicle>
    <vehicle id="139" depart="149.00">
        <route edges="SEB2T-intersection T-intersection2incoming_LTL incoming2four-arm_LTL four-arm2WB"/>
    </vehicle>
    <vehicle id="149" depart="149.00">
        <route edges="SEB2T-intersection T-intersection2incoming_LTL incoming2four-arm_LTL four-arm2WB"/>
    </vehicle>
    <vehicle id="150" depart="150.00">
        <route edges="NEB2incoming_LTL incoming2four-arm_LTL four-arm2bend bend2T-intersection_LTL T-intersection2SEB"/>
    </vehicle>
    <vehicle id="152" depart="150.00">
        <route edges="NWB2four-arm_LTL four-arm2bend bend2T-intersection_LTL T-intersection2SEB"/>
    </vehicle>
    <vehicle id="151" depart="154.00">
        <route edges="bend2four-arm_LTL four-arm2NWB"/>
    </vehicle>
    <vehicle id="155" depart="155.00">
        <route edges="EB2incoming incoming2four-arm_LTL"/>
    </vehicle>
    <vehicle id="159" depart="157.00">
        <route edges="incoming2four-arm_LTL four-arm2NWB"/>
    </vehicle>
    <vehicle id="157" depart="157.00">
        <route edges="incoming2four-arm_LTL four-arm2bend bend2T-intersection_LTL"/>
    </vehicle>
    <vehicle id="153" depart="158.00">
        <route edges="incoming2four-arm_LTL four-arm2bend bend2T-intersection_LTL T-intersection2incoming_LTL incoming2EB"/>
    </vehicle>
    <vehicle id="161" depart="161.00">
        <route edges="T-intersection2bend bend2four-arm_LTL four-arm2incoming incoming2EB"/>
    </vehicle>
    <vehicle id="164" depart="164.00">
        <route edges="NEB2incoming_LTL incoming2four-arm_LTL four-arm2bend"/>
    </vehicle>
    <vehicle id="173" depart="164.00">
        <route edges="SEB2T-intersection T-intersection2incoming_LTL incoming2four-arm_LTL"/>
    </vehicle>
    <vehicle id="162" depart="166.00">
        <route edges="EB2incoming incoming2four-arm_LTL four-arm2bend bend2T-intersection_LTL T-intersection2incoming_LTL incoming2EB"/>
    </vehicle>
    <vehicle id="167" depart="167.00">
        <route edges="NEB2incoming_LTL incoming2four-arm_LTL"/>
    </vehicle>
    <vehicle id="168" depart="168.00">
        <route edges="four-arm2bend bend2T-intersection_LTL T-intersection2incoming_LTL incoming2four-arm_LTL"/>
    </vehicle>
    <vehicle id="169" depart="169.00">
        <route edges="NWB2four-arm_LTL four-arm2incoming incoming2EB"/>
    </vehicle>
    <vehicle id="171" depart="170.00">
        <route edges="four-arm2bend bend2T-intersection_LTL T-intersection2incoming_LTL incoming2EB"/>
    </vehicle>
    <vehicle id="163" depart="171.00">
        <route edges="SEB2T-intersection T-intersection2bend bend2four-arm_LTL four-arm2incoming"/>
    </vehicle>
    <vehicle id="170" depart="173.00">
        <route edges="bend2four-arm_LTL"/>
    </vehicle>
    <vehicle id="174" depart="174.00">
        <route edges="EB2incoming incoming2four-arm_LTL four-arm2bend bend2T-intersection_LTL T-intersection2incoming_LTL"/>
    </vehicle>
    <vehicle id="175" depart="174.00">
        <route edges="four-arm2incoming incoming2EB"/>
    </vehicle>
    <vehicle id="165" depart="175.00">
        <route edges="NWB2four-arm_LTL four-arm2bend bend2T-intersection_LTL T-intersection2incoming_LTL"/>
    </vehicle>
    <vehicle id="166" depart="176.00">
        <route edges="NWB2four-arm_LTL four-arm2bend bend2T-intersection_LTL T-intersection2incoming_LTL incoming2four-arm_LTL"/>
    </vehicle>
    <vehicle id="177" depart="177.00">
        <route edges="SEB2T-intersection T-intersection2bend bend2four-arm_LTL"/>
    </vehicle>
    <vehicle id="179" depart="179.00">
        <route edges="EB2incoming incoming2four-arm_LTL four-arm2bend bend2T-intersection_LTL T-intersection2incoming_LTL incoming2EB"/>
    </vehicle>
    <vehicle id="176" depart="179.00">
        <route edges="NWB2four-arm_LTL four-arm2bend"/>
    </vehicle>
    <vehicle id="180" depart="180.00">
        <route edges="bend2T-intersection_LTL T-intersection2incoming_LTL incoming2four-arm_LTL four-arm2WB"/>
    </vehicle>
    <vehicle id="189" depart="180.00">
        <route edges="four-arm2bend"/>
    </vehicle>
    <vehicle id="178" depart="181.00">
        <route edges="four-arm2bend bend2T-intersection_LTL"/>
    </vehicle>
    <vehicle id="182" depart="182.00">
        <route edges="WB2four-arm_LTL four-arm2bend bend2T-intersection_LTL T-intersection2incoming_LTL incoming2four-arm_LTL four-arm2WB"/>
    </vehicle>
    <vehicle id="181" depart="183.00">
        <route edges="WB2four-arm_LTL four-arm2bend bend2T-intersection_LTL T-intersection2incoming_LTL incoming2four-arm_LTL four-arm2WB"/>
    </vehicle>
    <vehicle id="184" depart="184.00">
        <route edges="WB2four-arm_LTL four-arm2incoming incoming2EB"/>
    </vehicle>
    <vehicle id="185" depart="185.00">
        <route edges="NEB2incoming_LTL incoming2four-arm_LTL four-arm2NWB"/>
    </vehicle>
    <vehicle id="186" depart="186.00">
        <route edges="four-arm2bend bend2T-intersection_LTL T-intersection2incoming_LTL incoming2four-arm_LTL four-arm2NWB"/>
    </vehicle>
    <vehicle id="193" depart="187.00">
        <route edges="bend2T-intersection_LTL T-intersection2incoming_LTL"/>
    </vehicle>
    <vehicle id="188" depart="188.00">
        <route edges="NEB2incoming_LTL incoming2EB"/>
    </vehicle>
    <vehicle id="190" depart="190.00">
        <route edges="T-intersection2bend bend2four-arm_LTL four-arm2incoming incoming2EB"/>
    </vehicle>
    <vehicle id="183" depart="190.00">
        <route edges="incoming2four-arm_LTL"/>
    </vehicle>
    <vehicle id="192" depart="192.00">
        <route edges="WB2four-arm_LTL four-arm2bend"/>
    </vehicle>
    <vehicle id="187" depart="194.00">
        <route edges="EB2incoming incoming2four-arm_LTL"/>
    </vehicle>
    <vehicle id="194" depart="194.00">
        <route edges="T-intersection2bend bend2four-arm_LTL four-arm2WB"/>
    </vehicle>
    <vehicle id="196" depart="194.00">
        <route edges="bend2T-intersection_LTL T-intersection2incoming_LTL incoming2four-arm_LTL four-arm2NWB"/>
    </vehicle>
    <vehicle id="198" depart="198.00">
        <route edges="WB2four-arm_LTL four-arm2bend bend2T-intersection_LTL T-intersection2incoming_LTL incoming2four-arm_LTL"/>
    </vehicle>
    <vehicle id="200" depart="202.00">
        <route edges="NEB2incoming_LTL incoming2four-arm_LTL four-arm2bend bend2T-intersection_LTL T-intersection2SEB"/>
    </vehicle>
    <vehicle id="202" depart="202.00">
        <route edges="bend2T-intersection_LTL T-intersection2incoming_LTL incoming2EB"/>
    </vehicle>
    <vehicle id="204" depart="204.00">
        <route edges="T-intersection2incoming_LTL incoming2four-arm_LTL four-arm2bend"/>
    </vehicle>
    <vehicle id="209" depart="205.00">
        <route edges="SEB2T-intersection T-intersection2incoming_LTL incoming2four-arm_LTL"/>
    </vehicle>
    <vehicle id="205" depart="205.00">
        <route edges="SEB2T-intersection T-intersection2incoming_LTL incoming2four-arm_LTL four-arm2WB"/>
    </vehicle>
    <vehicle id="199" depart="207.00">
        <route edges="SEB2T-intersection T-intersection2incoming_LTL incoming2four-arm_LTL four-arm2NWB"/>
    </vehicle>
    <vehicle id="218" depart="208.00">
        <route edges="NEB2incoming_LTL incoming2four-arm_LTL four-arm2WB"/>
    </vehicle>
    <vehicle id="212" depart="208.00">
        <route edges="SEB2T-intersection T-intersection2incoming_LTL incoming2EB"/>
    </vehicle>
    <vehicle id="210" depart="210.00">
        <route edges="SEB2T-intersection T-intersection2incoming_LTL incoming2four-arm_LTL"/>
    </vehicle>
    <vehicle id="206" depart="210.00">
        <route edges="T-intersection2bend bend2four-arm_LTL four-arm2WB"/>
    </vehicle>
    <vehicle id="217" depart="211.00">
        <route edges="T-intersection2bend"/>
    </vehicle>
    <vehicle id="213" depart="213.00">
        <route edges="NWB2four-arm_LTL four-arm2WB"/>
    </vehicle>
    <vehicle id="216" depart="216.00">
        <route edges="bend2four-arm_LTL four-arm2WB"/>
    </vehicle>
    <vehicle id="220" depart="220.00">
        <route edges="NEB2incoming_LTL incoming2four-arm_LTL four-arm2bend bend2T-intersection_LTL"/>
    </vehicle>
    <vehicle id="221" depart="221.00">
        <route edges="T-intersection2bend bend2four-arm_LTL four-arm2WB"/>
    </vehicle>
    <vehicle id="222" depart="222.00">
        <route edges="T-intersection2incoming_LTL incoming2four-arm_LTL four-arm2NWB"/>
    </vehicle>
    <vehicle id="223" depart="223.00">
        <route edges="NEB2incoming_LTL incoming2four-arm_LTL"/>
    </vehicle>
    <vehicle id="227" depart="227.00">
        <route edges="T-intersection2bend bend2four-arm_LTL four-arm2NWB"/>
    </vehicle>
    <vehicle id="229" depart="229.00">
        <route edges="incoming2four-arm_LTL four-arm2bend bend2T-intersection_LTL T-intersection2incoming_LTL"/>
    </vehicle>
    <vehicle id="230" depart="230.00">
        <route edges="bend2four-arm_LTL four-arm2WB"/>
    </vehicle>
    <vehicle id="233" depart="231.00">
        <route edges="NWB2four-arm_LTL four-arm2incoming"/>
    </vehicle>
    <vehicle id="226" depart="233.00">
        <route edges="NEB2incoming_LTL incoming2EB"/>
    </vehicle>
    <vehicle id="234" depart="234.00">
        <route edges="T-intersection2incoming_LTL incoming2four-arm_LTL"/>
    </vehicle>
    <vehicle id="228" depart="234.00">
        <route edges="bend2T-intersection_LTL T-intersection2incoming_LTL incoming2four-arm_LTL four-arm2NWB"/>
    </vehicle>
    <vehicle id="244" depart="234.00">
        <route edges="incoming2four-arm_LTL four-arm2bend bend2T-intersection_LTL T-intersection2incoming_LTL"/>
    </vehicle>
    <vehicle id="242" depart="238.00">
        <route edges="EB2incoming incoming2four-arm_LTL four-arm2bend bend2T-intersection_LTL"/>
    </vehicle>
    <vehicle id="243" depart="239.00">
        <route edges="incoming2four-arm_LTL four-arm2bend bend2T-intersection_LTL T-intersection2SEB"/>
    </vehicle>
    <vehicle id="232" depart="240.00">
        <route edges="incoming2four-arm_LTL four-arm2WB"/>
    </vehicle>
    <vehicle id="247" depart="247.00">
        <route edges="T-intersection2bend bend2four-arm_LTL four-arm2NWB"/>
    </vehicle>
    <vehicle id="258" depart="252.00">
        <route edges="incoming2four-arm_LTL four-arm2bend bend2T-intersection_LTL T-intersection2incoming_LTL incoming2EB"/>
    </vehicle>
    <vehicle id="253" depart="253.00">
        <route edges="incoming2four-arm_LTL four-arm2NWB"/>
    </vehicle>
    <vehicle id="255" depart="255.00">
        <route edges="SEB2T-intersection T-intersection2incoming_LTL incoming2four-arm_LTL four-arm2bend bend2T-intersection_LTL"/>
    </vehicle>
    <vehicle id="257" depart="257.00">
        <route edges="incoming2four-arm_LTL four-arm2bend bend2T-intersection_LTL T-intersection2incoming_LTL incoming2EB"/>
    </vehicle>
    <vehicle id="256" depart="258.00">
        <route edges="bend2T-intersection_LTL T-intersection2incoming_LTL incoming2four-arm_LTL four-arm2NWB"/>
    </vehicle>
    <vehicle id="259" depart="259.00">
        <route edges="SEB2T-intersection T-intersection2incoming_LTL incoming2four-arm_LTL four-arm2NWB"/>
    </vehicle>
    <vehicle id="260" depart="260.00">
        <route edges="WB2four-arm_LTL four-arm2bend"/>
    </vehicle>
    <vehicle id="261" depart="262.00">
        <route edges="SEB2T-intersection T-intersection2incoming_LTL incoming2EB"/>
    </vehicle>
    <vehicle id="270" depart="263.00">
        <route edges="WB2four-arm_LTL four-arm2bend bend2T-intersection_LTL T-intersection2incoming_LTL incoming2four-arm_LTL"/>
    </vehicle>
    <vehicle id="274" depart="264.00">
        <route edges="WB2four-arm_LTL four-arm2bend bend2T-intersection_LTL T-intersection2incoming_LTL incoming2four-arm_LTL four-arm2WB"/>
    </vehicle>
    <vehicle id="264" depart="264.00">
        <route edges="four-arm2bend"/>
    </vehicle>
    <vehicle id="265" depart="265.00">
        <route edges="bend2T-intersection_LTL T-intersection2incoming_LTL incoming2four-arm_LTL four-arm2bend"/>
    </vehicle>
    <vehicle id="266" depart="266.00">
        <route edges="NEB2incoming_LTL incoming2four-arm_LTL"/>
    </vehicle>
    <vehicle id="262" depart="270.00">
        <route edges="EB2incoming incoming2four-arm_LTL four-arm2NWB"/>
    </vehicle>
    <vehicle id="271" depart="271.00">
        <route edges="SEB2T-intersection T-intersection2bend bend2four-arm_LTL"/>
    </vehicle>
    <vehicle id="272" depart="272.00">
        <route edges="SEB2T-intersection T-intersection2incoming_LTL incoming2EB"/>
    </vehicle>
    <vehicle id="276" depart="273.00">
        <route edges="EB2incoming incoming2four-arm_LTL four-arm2NWB"/>
    </vehicle>
    <vehicle id="283" depart="276.00">
        <route edges="bend2T-intersection_LTL T-intersection2incoming_LTL incoming2four-arm_LTL four-arm2NWB"/>
    </vehicle>
    <vehicle id="277" depart="277.00">
        <route edges="NWB2four-arm_LTL four-arm2bend bend2T-intersection_LTL T-intersection2incoming_LTL incoming2four-arm_LTL four-arm2NWB"/>
    </vehicle>
    <vehicle id="281" depart="278.00">
        <route edges="NEB2incoming_LTL incoming2four-arm_LTL four-arm2bend bend2T-intersection_LTL"/>
    </vehicle>
    <vehicle id="278" depart="278.00">
        <route edges="WB2four-arm_LTL four-arm2bend bend2T-intersection_LTL"/>
    </vehicle>
    <vehicle id="279" depart="279.00">
        <route edges="bend2four-arm_LTL four-arm2incoming incoming2EB"/>
    </vehicle>
    <vehicle id="280" depart="280.00">
        <route edges="four-arm2bend bend2T-intersection_LTL T-intersection2incoming_LTL incoming2four-arm_LTL four-arm2NWB"/>
    </vehicle>
    <vehicle id="282" depart="281.00">
        <route edges="EB2incoming incoming2four-arm_LTL four-arm2bend bend2T-intersection_LTL T-intersection2incoming_LTL"/>
    </vehicle>
    <vehicle id="284" depart="284.00">
        <route edges="NEB2incoming_LTL incoming2four-arm_LTL"/>
    </vehicle>
    <vehicle id="288" depart="286.00">
        <route edges="EB2incoming incoming2four-arm_LTL four-arm2bend bend2T-intersection_LTL T-intersection2incoming_LTL"/>
    </vehicle>
    <vehicle id="287" depart="287.00">