<configuration>
    <input>
        <net-file value="simpleNetwork.net.xml"/>
    </input>
</configuration>